ZINC00003491
csCF1202/ 12301312233D

 32 35  0  0  0  0  0  0  0  0999 V2000
   -0.1590   -4.5252    2.3176 C   0  0  0  0  0  0  0  0  0  0  0  0
    0.9539   -4.9913    1.5519 O   0  0  0  0  0  0  0  0  0  0  0  0
    1.5959   -4.0795    0.7816 C   0  0  0  0  0  0  0  0  0  0  0  0
    1.1781   -2.7620    0.7589 C   0  0  0  0  0  0  0  0  0  0  0  0
    1.8055   -1.7799   -0.0255 C   0  0  0  0  0  0  0  0  0  0  0  0
    2.9098   -2.1303   -0.8168 C   0  0  0  0  0  0  0  0  0  0  0  0
    3.3201   -3.4720   -0.7744 C   0  0  0  0  0  0  0  0  0  0  0  0
    2.7061   -4.4604   -0.0057 C   0  0  0  0  0  0  0  0  0  0  0  0
    3.2453   -5.7543   -0.0791 C   0  0  0  0  0  0  0  0  0  0  0  0
    4.3386   -5.9663   -0.8983 C   0  0  0  0  0  0  0  0  0  0  0  0
    4.9278   -4.9556   -1.6530 C   0  0  0  0  0  0  0  0  0  0  0  0
    4.4194   -3.6694   -1.6032 C   0  0  0  0  0  0  0  0  0  0  0  0
    4.7123   -2.4403   -2.1806 N   0  0  0  0  0  0  0  0  0  0  0  0
    3.8403   -1.4949   -1.7422 C   0  0  0  0  0  0  0  0  0  0  0  0
    3.8362   -0.3204   -2.0665 O   0  0  0  0  0  0  0  0  0  0  0  0
    2.7082   -6.7686    0.6336 F   0  0  0  0  0  0  0  0  0  0  0  0
    1.3119   -0.3925   -0.0126 C   0  0  0  0  0  0  0  0  0  0  0  0
    0.0021   -0.0041    0.0020 C   0  0  0  0  0  0  0  0  0  0  0  0
   -0.0169    1.3971    0.0097 C   0  0  0  0  0  0  0  0  0  0  0  0
    1.2658    1.8270   -0.0002 C   0  0  0  0  0  0  0  0  0  0  0  0
    2.0862    0.7420   -0.0139 N   0  0  0  0  0  0  0  0  0  0  0  0
    3.0558    0.7656   -0.0235 H   0  0  0  0  0  0  0  0  0  0  0  0
    0.1725   -3.7447    3.0024 H   0  0  0  0  0  0  0  0  0  0  0  0
   -0.9179   -4.1219    1.6471 H   0  0  0  0  0  0  0  0  0  0  0  0
   -0.5805   -5.3534    2.8872 H   0  0  0  0  0  0  0  0  0  0  0  0
    0.3319   -2.4767    1.3664 H   0  0  0  0  0  0  0  0  0  0  0  0
    4.7549   -6.9613   -0.9551 H   0  0  0  0  0  0  0  0  0  0  0  0
    5.7811   -5.1752   -2.2775 H   0  0  0  0  0  0  0  0  0  0  0  0
    5.4357   -2.2798   -2.8066 H   0  0  0  0  0  0  0  0  0  0  0  0
   -0.8589   -0.6560    0.0071 H   0  0  0  0  0  0  0  0  0  0  0  0
   -0.8978    2.0219    0.0175 H   0  0  0  0  0  0  0  0  0  0  0  0
    1.5850    2.8587    0.0017 H   0  0  0  0  0  0  0  0  0  0  0  0
  1  2  1  0        0
  1 23  1  0        0
  1 24  1  0        0
  1 25  1  0        0
  2  3  1  0        0
  3  8  2  0        0
  3  4  1  0        0
  4  5  2  0        0
  4 26  1  0        0
  5  6  1  0        0
  5 17  1  0        0
  6 14  1  0        0
  6  7  2  0        0
  7 12  1  0        0
  7  8  1  0        0
  8  9  1  0        0
  9 10  2  0        0
  9 16  1  0        0
 10 11  1  0        0
 10 27  1  0        0
 11 12  2  0        0
 11 28  1  0        0
 12 13  1  0        0
 13 14  1  0        0
 13 29  1  0        0
 14 15  2  0        0
 17 21  1  0        0
 17 18  2  0        0
 18 19  1  0        0
 18 30  1  0        0
 19 20  2  0        0
 19 31  1  0        0
 20 21  1  0        0
 20 32  1  0        0
 21 22  1  0        0
M  END
>  <MolfileName> (1)
ZINC00003491

$$$$
ZINC00023543
csCF1202/ 12301312233D

 35 37  0  0  0  0  0  0  0  0999 V2000
    2.8012    3.4365   -0.0062 C   0  0  0  0  0  0  0  0  0  0  0  0
    1.4401    3.3433    0.0063 N   0  0  0  0  0  0  0  0  0  0  0  0
    0.7948    4.1071    0.0166 H   0  0  0  0  0  0  0  0  0  0  0  0
    1.1191    2.0094    0.0022 C   0  0  0  0  0  0  0  0  0  0  0  0
    2.3420    1.3164   -0.0132 C   0  0  0  0  0  0  0  0  0  0  0  0
    3.3282    2.2473   -0.0180 N   0  0  0  0  0  0  0  0  0  0  0  0
    2.3119   -0.0865   -0.0209 C   0  0  0  0  0  0  0  0  0  0  0  0
    1.1340   -0.6966   -0.0129 N   0  0  0  0  0  0  0  0  0  0  0  0
    0.0021   -0.0041    0.0020 C   0  0  0  0  0  0  0  0  0  0  0  0
   -0.0159    1.3190    0.0093 N   0  0  0  0  0  0  0  0  0  0  0  0
   -1.2016   -0.6896    0.0098 N   0  0  0  0  0  0  0  0  0  0  0  0
    3.4616   -0.8027   -0.0366 O   0  0  0  0  0  0  0  0  0  0  0  0
    3.3389   -2.2264   -0.0440 C   0  0  0  0  0  0  0  0  0  0  0  0
    4.7322   -2.8583   -0.0616 C   0  0  0  0  0  0  0  0  0  0  0  0
    5.4355   -2.5058   -1.3739 C   0  0  0  0  0  0  0  0  0  0  0  0
    6.8288   -3.1376   -1.3915 C   0  0  0  0  0  0  0  0  0  0  0  0
    6.7010   -4.6577   -1.2737 C   0  0  0  0  0  0  0  0  0  0  0  0
    5.9978   -5.0102    0.0386 C   0  0  0  0  0  0  0  0  0  0  0  0
    4.6044   -4.3784    0.0562 C   0  0  0  0  0  0  0  0  0  0  0  0
    3.3589    4.3614   -0.0060 H   0  0  0  0  0  0  0  0  0  0  0  0
   -2.0387   -0.1996    0.0205 H   0  0  0  0  0  0  0  0  0  0  0  0
   -1.2074   -1.6595    0.0047 H   0  0  0  0  0  0  0  0  0  0  0  0
    2.8046   -2.5497    0.8494 H   0  0  0  0  0  0  0  0  0  0  0  0
    2.7870   -2.5390   -0.9305 H   0  0  0  0  0  0  0  0  0  0  0  0
    5.3149   -2.4766    0.7768 H   0  0  0  0  0  0  0  0  0  0  0  0
    4.8529   -2.8875   -2.2123 H   0  0  0  0  0  0  0  0  0  0  0  0
    5.5266   -1.4228   -1.4579 H   0  0  0  0  0  0  0  0  0  0  0  0
    7.4115   -2.7559   -0.5531 H   0  0  0  0  0  0  0  0  0  0  0  0
    7.3299   -2.8865   -2.3264 H   0  0  0  0  0  0  0  0  0  0  0  0
    7.6937   -5.1079   -1.2863 H   0  0  0  0  0  0  0  0  0  0  0  0
    6.1184   -5.0394   -2.1121 H   0  0  0  0  0  0  0  0  0  0  0  0
    6.5804   -4.6285    0.8770 H   0  0  0  0  0  0  0  0  0  0  0  0
    5.9067   -6.0931    0.1225 H   0  0  0  0  0  0  0  0  0  0  0  0
    4.1034   -4.6295    0.9911 H   0  0  0  0  0  0  0  0  0  0  0  0
    4.0218   -4.7600   -0.7822 H   0  0  0  0  0  0  0  0  0  0  0  0
  1  6  2  0        0
  1  2  1  0        0
  1 20  1  0        0
  2  3  1  0        0
  2  4  1  0        0
  4 10  2  0        0
  4  5  1  0        0
  5  6  1  0        0
  5  7  2  0        0
  7  8  1  0        0
  7 12  1  0        0
  8  9  2  0        0
  9 10  1  0        0
  9 11  1  0        0
 11 21  1  0        0
 11 22  1  0        0
 12 13  1  0        0
 13 14  1  0        0
 13 23  1  0        0
 13 24  1  0        0
 14 19  1  0        0
 14 15  1  0        0
 14 25  1  0        0
 15 16  1  0        0
 15 26  1  0        0
 15 27  1  0        0
 16 17  1  0        0
 16 28  1  0        0
 16 29  1  0        0
 17 18  1  0        0
 17 30  1  0        0
 17 31  1  0        0
 18 19  1  0        0
 18 32  1  0        0
 18 33  1  0        0
 19 34  1  0        0
 19 35  1  0        0
M  END
>  <MolfileName> (2)
ZINC00023543

$$$$
ZINC00023841
csCF1202/ 12301312233D

 40 43  0  0  0  0  0  0  0  0999 V2000
   -7.9454    1.1663    0.9890 C   0  0  0  0  0  0  0  0  0  0  0  0
   -6.7607    0.4545    0.9643 C   0  0  0  0  0  0  0  0  0  0  0  0
   -5.5565    1.1105    1.1390 C   0  0  0  0  0  0  0  0  0  0  0  0
   -5.5371    2.4781    1.3388 C   0  0  0  0  0  0  0  0  0  0  0  0
   -6.7222    3.1891    1.3691 C   0  0  0  0  0  0  0  0  0  0  0  0
   -7.9261    2.5340    1.1888 C   0  0  0  0  0  0  0  0  0  0  0  0
   -4.2243    3.1932    1.5297 C   0  0  0  0  0  0  0  0  0  0  0  0
   -3.7211    3.6124    0.2595 O   0  0  0  0  0  0  0  0  0  0  0  0
   -2.5409    4.2743    0.2544 C   0  0  0  0  0  0  0  0  0  0  0  0
   -2.4941    5.6748    0.3650 C   0  0  0  0  0  0  0  0  0  0  0  0
   -3.4827    6.6787    0.4942 C   0  0  0  0  0  0  0  0  0  0  0  0
   -2.8890    7.8351    0.5582 N   0  0  0  0  0  0  0  0  0  0  0  0
   -1.5029    7.6597    0.4763 N   0  0  0  0  0  0  0  0  0  0  0  0
   -3.3531    8.7159    0.6518 H   0  0  0  0  0  0  0  0  0  0  0  0
   -1.2452    6.3231    0.3562 C   0  0  0  0  0  0  0  0  0  0  0  0
   -0.1204    5.6195    0.2447 N   0  0  0  0  0  0  0  0  0  0  0  0
   -0.1243    4.3119    0.1446 C   0  0  0  0  0  0  0  0  0  0  0  0
   -1.3231    3.5842    0.1386 C   0  0  0  0  0  0  0  0  0  0  0  0
   -1.3051    2.1172    0.0191 C   0  0  0  0  0  0  0  0  0  0  0  0
   -2.3385    1.4854    0.1290 O   0  0  0  0  0  0  0  0  0  0  0  0
   -0.0310    1.4119   -0.2346 C   0  0  0  0  0  0  0  0  0  0  0  0
    0.9452    1.9965   -1.0438 C   0  0  0  0  0  0  0  0  0  0  0  0
    2.1296    1.3304   -1.2810 C   0  0  0  0  0  0  0  0  0  0  0  0
    2.3515    0.0856   -0.7187 C   0  0  0  0  0  0  0  0  0  0  0  0
    1.3881   -0.4998    0.0838 C   0  0  0  0  0  0  0  0  0  0  0  0
    0.1993    0.1553    0.3292 C   0  0  0  0  0  0  0  0  0  0  0  0
   -8.8861    0.6538    0.8518 H   0  0  0  0  0  0  0  0  0  0  0  0
   -6.7758   -0.6141    0.8081 H   0  0  0  0  0  0  0  0  0  0  0  0
   -4.6308    0.5543    1.1197 H   0  0  0  0  0  0  0  0  0  0  0  0
   -6.7073    4.2571    1.5297 H   0  0  0  0  0  0  0  0  0  0  0  0
   -8.8517    3.0901    1.2077 H   0  0  0  0  0  0  0  0  0  0  0  0
   -3.5083    2.5191    1.9996 H   0  0  0  0  0  0  0  0  0  0  0  0
   -4.3747    4.0650    2.1666 H   0  0  0  0  0  0  0  0  0  0  0  0
   -4.5492    6.5135    0.5334 H   0  0  0  0  0  0  0  0  0  0  0  0
    0.8147    3.7849    0.0605 H   0  0  0  0  0  0  0  0  0  0  0  0
    0.7733    2.9680   -1.4833 H   0  0  0  0  0  0  0  0  0  0  0  0
    2.8855    1.7814   -1.9066 H   0  0  0  0  0  0  0  0  0  0  0  0
    3.2806   -0.4315   -0.9073 H   0  0  0  0  0  0  0  0  0  0  0  0
    1.5676   -1.4717    0.5193 H   0  0  0  0  0  0  0  0  0  0  0  0
   -0.5517   -0.3027    0.9558 H   0  0  0  0  0  0  0  0  0  0  0  0
  1  6  2  0        0
  1  2  1  0        0
  1 27  1  0        0
  2  3  2  0        0
  2 28  1  0        0
  3  4  1  0        0
  3 29  1  0        0
  4  5  2  0        0
  4  7  1  0        0
  5  6  1  0        0
  5 30  1  0        0
  6 31  1  0        0
  7  8  1  0        0
  7 32  1  0        0
  7 33  1  0        0
  8  9  1  0        0
  9 18  2  0        0
  9 10  1  0        0
 10 15  1  0        0
 10 11  2  0        0
 11 34  1  0        0
 11 12  1  0        0
 12 14  1  0        0
 12 13  1  0        0
 13 15  2  0        0
 15 16  1  0        0
 16 17  2  0        0
 17 18  1  0        0
 17 35  1  0        0
 18 19  1  0        0
 19 20  2  0        0
 19 21  1  0        0
 21 26  2  0        0
 21 22  1  0        0
 22 23  2  0        0
 22 36  1  0        0
 23 24  1  0        0
 23 37  1  0        0
 24 25  2  0        0
 24 38  1  0        0
 25 26  1  0        0
 25 39  1  0        0
 26 40  1  0        0
M  END
>  <MolfileName> (3)
ZINC00023841

$$$$
ZINC00023841
csCF1202/ 12301312233D

 41 44  0  0  0  0  0  0  0  0999 V2000
   -7.9452    1.1662    0.9907 C   0  0  0  0  0  0  0  0  0  0  0  0
   -6.7604    0.4544    0.9658 C   0  0  0  0  0  0  0  0  0  0  0  0
   -5.5562    1.1104    1.1402 C   0  0  0  0  0  0  0  0  0  0  0  0
   -5.5368    2.4781    1.3399 C   0  0  0  0  0  0  0  0  0  0  0  0
   -6.7219    3.1890    1.3705 C   0  0  0  0  0  0  0  0  0  0  0  0
   -7.9258    2.5339    1.1905 C   0  0  0  0  0  0  0  0  0  0  0  0
   -4.2240    3.1932    1.5305 C   0  0  0  0  0  0  0  0  0  0  0  0
   -3.7211    3.6123    0.2602 O   0  0  0  0  0  0  0  0  0  0  0  0
   -2.5409    4.2743    0.2548 C   0  0  0  0  0  0  0  0  0  0  0  0
   -2.4941    5.6748    0.3653 C   0  0  0  0  0  0  0  0  0  0  0  0
   -3.4827    6.6787    0.4947 C   0  0  0  0  0  0  0  0  0  0  0  0
   -2.8890    7.8351    0.5582 N   0  0  0  0  0  0  0  0  0  0  0  0
   -1.5029    7.6597    0.4757 N   0  0  0  0  0  0  0  0  0  0  0  0
   -0.8181    8.3880    0.5003 H   0  0  0  0  0  0  0  0  0  0  0  0
   -1.2452    6.3231    0.3558 C   0  0  0  0  0  0  0  0  0  0  0  0
   -0.1243    4.3119    0.1442 C   0  0  0  0  0  0  0  0  0  0  0  0
   -1.3231    3.5842    0.1389 C   0  0  0  0  0  0  0  0  0  0  0  0
   -1.3051    2.1171    0.0198 C   0  0  0  0  0  0  0  0  0  0  0  0
   -2.3384    1.4853    0.1303 O   0  0  0  0  0  0  0  0  0  0  0  0
   -0.0310    1.4118   -0.2343 C   0  0  0  0  0  0  0  0  0  0  0  0
    0.9448    1.9963   -1.0441 C   0  0  0  0  0  0  0  0  0  0  0  0
    2.1291    1.3302   -1.2816 C   0  0  0  0  0  0  0  0  0  0  0  0
    2.3513    0.0855   -0.7191 C   0  0  0  0  0  0  0  0  0  0  0  0
    1.3883   -0.4997    0.0840 C   0  0  0  0  0  0  0  0  0  0  0  0
    0.1996    0.1554    0.3297 C   0  0  0  0  0  0  0  0  0  0  0  0
   -8.8859    0.6537    0.8538 H   0  0  0  0  0  0  0  0  0  0  0  0
   -6.7756   -0.6142    0.8097 H   0  0  0  0  0  0  0  0  0  0  0  0
   -4.6305    0.5543    1.1207 H   0  0  0  0  0  0  0  0  0  0  0  0
   -6.7070    4.2570    1.5310 H   0  0  0  0  0  0  0  0  0  0  0  0
   -8.8514    3.0900    1.2096 H   0  0  0  0  0  0  0  0  0  0  0  0
   -3.5079    2.5191    2.0003 H   0  0  0  0  0  0  0  0  0  0  0  0
   -4.3742    4.0650    2.1674 H   0  0  0  0  0  0  0  0  0  0  0  0
   -4.5492    6.5134    0.5340 H   0  0  0  0  0  0  0  0  0  0  0  0
    0.8147    3.7850    0.0598 H   0  0  0  0  0  0  0  0  0  0  0  0
    0.7726    2.9677   -1.4837 H   0  0  0  0  0  0  0  0  0  0  0  0
    2.8847    1.7811   -1.9077 H   0  0  0  0  0  0  0  0  0  0  0  0
    3.2804   -0.4316   -0.9080 H   0  0  0  0  0  0  0  0  0  0  0  0
    1.5680   -1.4715    0.5196 H   0  0  0  0  0  0  0  0  0  0  0  0
   -0.5512   -0.3025    0.9567 H   0  0  0  0  0  0  0  0  0  0  0  0
   -0.0486    5.6589    0.2435 N   0  3  0  0  0  0  0  0  0  0  0  0
    0.8503    6.1551    0.2355 H   0  0  0  0  0  0  0  0  0  0  0  0
  1  6  2  0        0
  1  2  1  0        0
  1 26  1  0        0
  2  3  2  0        0
  2 27  1  0        0
  3  4  1  0        0
  3 28  1  0        0
  4  5  2  0        0
  4  7  1  0        0
  5  6  1  0        0
  5 29  1  0        0
  6 30  1  0        0
  7  8  1  0        0
  7 31  1  0        0
  7 32  1  0        0
  8  9  1  0        0
  9 17  2  0        0
  9 10  1  0        0
 10 15  2  0        0
 10 11  1  0        0
 11 12  2  0        0
 11 33  1  0        0
 12 13  1  0        0
 13 14  1  0        0
 13 15  1  0        0
 15 40  1  0        0
 16 17  1  0        0
 16 34  1  0        0
 16 40  2  0        0
 17 18  1  0        0
 18 19  2  0        0
 18 20  1  0        0
 20 25  2  0        0
 20 21  1  0        0
 21 22  2  0        0
 21 35  1  0        0
 22 23  1  0        0
 22 36  1  0        0
 23 24  2  0        0
 23 37  1  0        0
 24 25  1  0        0
 24 38  1  0        0
 25 39  1  0        0
 40 41  1  0        0
M  CHG  1  40   1
M  END
>  <MolfileName> (4)
ZINC00023841

$$$$
ZINC00023841
csCF1202/ 12301312233D

 40 43  0  0  0  0  0  0  0  0999 V2000
   -7.9454    1.1663    0.9890 C   0  0  0  0  0  0  0  0  0  0  0  0
   -6.7607    0.4545    0.9643 C   0  0  0  0  0  0  0  0  0  0  0  0
   -5.5565    1.1105    1.1390 C   0  0  0  0  0  0  0  0  0  0  0  0
   -5.5371    2.4781    1.3388 C   0  0  0  0  0  0  0  0  0  0  0  0
   -6.7222    3.1891    1.3691 C   0  0  0  0  0  0  0  0  0  0  0  0
   -7.9261    2.5340    1.1888 C   0  0  0  0  0  0  0  0  0  0  0  0
   -4.2243    3.1932    1.5297 C   0  0  0  0  0  0  0  0  0  0  0  0
   -3.7211    3.6124    0.2595 O   0  0  0  0  0  0  0  0  0  0  0  0
   -2.5409    4.2743    0.2544 C   0  0  0  0  0  0  0  0  0  0  0  0
   -2.4941    5.6748    0.3650 C   0  0  0  0  0  0  0  0  0  0  0  0
   -3.4827    6.6787    0.4942 C   0  0  0  0  0  0  0  0  0  0  0  0
   -2.8890    7.8351    0.5582 N   0  0  0  0  0  0  0  0  0  0  0  0
   -1.5029    7.6597    0.4763 N   0  0  0  0  0  0  0  0  0  0  0  0
   -3.3531    8.7159    0.6518 H   0  0  0  0  0  0  0  0  0  0  0  0
   -1.2452    6.3231    0.3562 C   0  0  0  0  0  0  0  0  0  0  0  0
   -0.1204    5.6195    0.2447 N   0  0  0  0  0  0  0  0  0  0  0  0
   -0.1243    4.3119    0.1446 C   0  0  0  0  0  0  0  0  0  0  0  0
   -1.3231    3.5842    0.1386 C   0  0  0  0  0  0  0  0  0  0  0  0
   -1.3051    2.1172    0.0191 C   0  0  0  0  0  0  0  0  0  0  0  0
   -2.3385    1.4854    0.1290 O   0  0  0  0  0  0  0  0  0  0  0  0
   -0.0310    1.4119   -0.2346 C   0  0  0  0  0  0  0  0  0  0  0  0
    0.9452    1.9965   -1.0438 C   0  0  0  0  0  0  0  0  0  0  0  0
    2.1296    1.3304   -1.2810 C   0  0  0  0  0  0  0  0  0  0  0  0
    2.3515    0.0856   -0.7187 C   0  0  0  0  0  0  0  0  0  0  0  0
    1.3881   -0.4998    0.0838 C   0  0  0  0  0  0  0  0  0  0  0  0
    0.1993    0.1553    0.3292 C   0  0  0  0  0  0  0  0  0  0  0  0
   -8.8861    0.6538    0.8518 H   0  0  0  0  0  0  0  0  0  0  0  0
   -6.7758   -0.6141    0.8081 H   0  0  0  0  0  0  0  0  0  0  0  0
   -4.6308    0.5543    1.1197 H   0  0  0  0  0  0  0  0  0  0  0  0
   -6.7073    4.2571    1.5297 H   0  0  0  0  0  0  0  0  0  0  0  0
   -8.8517    3.0901    1.2077 H   0  0  0  0  0  0  0  0  0  0  0  0
   -3.5083    2.5191    1.9996 H   0  0  0  0  0  0  0  0  0  0  0  0
   -4.3747    4.0650    2.1666 H   0  0  0  0  0  0  0  0  0  0  0  0
   -4.5492    6.5135    0.5334 H   0  0  0  0  0  0  0  0  0  0  0  0
    0.8147    3.7849    0.0605 H   0  0  0  0  0  0  0  0  0  0  0  0
    0.7733    2.9680   -1.4833 H   0  0  0  0  0  0  0  0  0  0  0  0
    2.8855    1.7814   -1.9066 H   0  0  0  0  0  0  0  0  0  0  0  0
    3.2806   -0.4315   -0.9073 H   0  0  0  0  0  0  0  0  0  0  0  0
    1.5676   -1.4717    0.5193 H   0  0  0  0  0  0  0  0  0  0  0  0
   -0.5517   -0.3027    0.9558 H   0  0  0  0  0  0  0  0  0  0  0  0
  1  6  2  0        0
  1  2  1  0        0
  1 27  1  0        0
  2  3  2  0        0
  2 28  1  0        0
  3  4  1  0        0
  3 29  1  0        0
  4  5  2  0        0
  4  7  1  0        0
  5  6  1  0        0
  5 30  1  0        0
  6 31  1  0        0
  7  8  1  0        0
  7 32  1  0        0
  7 33  1  0        0
  8  9  1  0        0
  9 18  2  0        0
  9 10  1  0        0
 10 15  1  0        0
 10 11  2  0        0
 11 34  1  0        0
 11 12  1  0        0
 12 14  1  0        0
 12 13  1  0        0
 13 15  2  0        0
 15 16  1  0        0
 16 17  2  0        0
 17 18  1  0        0
 17 35  1  0        0
 18 19  1  0        0
 19 20  2  0        0
 19 21  1  0        0
 21 26  2  0        0
 21 22  1  0        0
 22 23  2  0        0
 22 36  1  0        0
 23 24  1  0        0
 23 37  1  0        0
 24 25  2  0        0
 24 38  1  0        0
 25 26  1  0        0
 25 39  1  0        0
 26 40  1  0        0
M  END
>  <MolfileName> (5)
ZINC00023841

$$$$
ZINC00023904
csCF1202/ 12301312233D

 39 42  0  0  0  0  0  0  0  0999 V2000
    9.1052    7.1308    0.8156 C   0  0  0  0  0  0  0  0  0  0  0  0
    8.1017    7.6449   -0.0623 O   0  0  0  0  0  0  0  0  0  0  0  0
    6.8921    7.0281   -0.0444 C   0  0  0  0  0  0  0  0  0  0  0  0
    5.8724    7.4785   -0.8739 C   0  0  0  0  0  0  0  0  0  0  0  0
    4.6437    6.8560   -0.8586 C   0  0  0  0  0  0  0  0  0  0  0  0
    4.4235    5.7698   -0.0071 C   0  0  0  0  0  0  0  0  0  0  0  0
    5.4503    5.3234    0.8294 C   0  0  0  0  0  0  0  0  0  0  0  0
    6.6776    5.9485    0.8038 C   0  0  0  0  0  0  0  0  0  0  0  0
    3.1091    5.1003    0.0132 C   0  0  0  0  0  0  0  0  0  0  0  0
    2.8825    3.7307    0.0075 C   0  0  0  0  0  0  0  0  0  0  0  0
    1.4291    3.5473    0.0334 C   0  0  0  0  0  0  0  0  0  0  0  0
    0.8859    4.7392    0.0522 N   0  0  0  0  0  0  0  0  0  0  0  0
    1.8912    5.7111    0.0404 N   0  0  0  0  0  0  0  0  0  0  0  0
    1.7401    6.6996    0.0504 H   0  0  0  0  0  0  0  0  0  0  0  0
    1.1628    2.0873    0.0286 C   0  0  0  0  0  0  0  0  0  0  0  0
   -0.0244    1.3662    0.0454 C   0  0  0  0  0  0  0  0  0  0  0  0
   -0.0001   -0.0186    0.0352 C   0  0  0  0  0  0  0  0  0  0  0  0
    1.2004   -0.6982    0.0082 C   0  0  0  0  0  0  0  0  0  0  0  0
    2.4018    0.0027   -0.0091 C   0  0  0  0  0  0  0  0  0  0  0  0
    2.3907    1.4034    0.0010 C   0  0  0  0  0  0  0  0  0  0  0  0
    3.4877    2.3922   -0.0128 C   0  0  0  0  0  0  0  0  0  0  0  0
    4.6783    2.1430   -0.0363 O   0  0  0  0  0  0  0  0  0  0  0  0
    3.6115   -0.6858   -0.0358 N   0  0  0  0  0  0  0  0  0  0  0  0
    3.6643   -1.9362   -0.5359 C   0  0  0  0  0  0  0  0  0  0  0  0
    2.6802   -2.4248   -1.0564 O   0  0  0  0  0  0  0  0  0  0  0  0
    4.8080   -2.6450   -0.4589 N   0  0  0  0  0  0  0  0  0  0  0  0
    9.3045    6.0881    0.5686 H   0  0  0  0  0  0  0  0  0  0  0  0
   10.0200    7.7124    0.7019 H   0  0  0  0  0  0  0  0  0  0  0  0
    8.7565    7.1999    1.8460 H   0  0  0  0  0  0  0  0  0  0  0  0
    6.0434    8.3181   -1.5313 H   0  0  0  0  0  0  0  0  0  0  0  0
    3.8516    7.2070   -1.5034 H   0  0  0  0  0  0  0  0  0  0  0  0
    5.2831    4.4873    1.4922 H   0  0  0  0  0  0  0  0  0  0  0  0
    7.4730    5.6014    1.4466 H   0  0  0  0  0  0  0  0  0  0  0  0
   -0.9701    1.8875    0.0620 H   0  0  0  0  0  0  0  0  0  0  0  0
   -0.9282   -0.5708    0.0488 H   0  0  0  0  0  0  0  0  0  0  0  0
    1.2074   -1.7782    0.0008 H   0  0  0  0  0  0  0  0  0  0  0  0
    4.4163   -0.2655    0.3055 H   0  0  0  0  0  0  0  0  0  0  0  0
    5.5932   -2.2552   -0.0436 H   0  0  0  0  0  0  0  0  0  0  0  0
    4.8460   -3.5450   -0.8188 H   0  0  0  0  0  0  0  0  0  0  0  0
  1  2  1  0        0
  1 27  1  0        0
  1 28  1  0        0
  1 29  1  0        0
  2  3  1  0        0
  3  8  2  0        0
  3  4  1  0        0
  4  5  2  0        0
  4 30  1  0        0
  5  6  1  0        0
  5 31  1  0        0
  6  7  2  0        0
  6  9  1  0        0
  7  8  1  0        0
  7 32  1  0        0
  8 33  1  0        0
  9 13  1  0        0
  9 10  2  0        0
 10 21  1  0        0
 10 11  1  0        0
 11 12  2  0        0
 11 15  1  0        0
 12 13  1  0        0
 13 14  1  0        0
 15 20  2  0        0
 15 16  1  0        0
 16 17  2  0        0
 16 34  1  0        0
 17 18  1  0        0
 17 35  1  0        0
 18 19  2  0        0
 18 36  1  0        0
 19 20  1  0        0
 19 23  1  0        0
 20 21  1  0        0
 21 22  2  0        0
 23 24  1  0        0
 23 37  1  0        0
 24 25  2  0        0
 24 26  1  0        0
 26 38  1  0        0
 26 39  1  0        0
M  END
>  <MolfileName> (6)
ZINC00023904

$$$$
ZINC00023904
csCF1202/ 12301312233D

 39 42  0  0  0  0  0  0  0  0999 V2000
    9.1051    7.1313    0.8142 C   0  0  0  0  0  0  0  0  0  0  0  0
    8.1017    7.6449   -0.0640 O   0  0  0  0  0  0  0  0  0  0  0  0
    6.8921    7.0281   -0.0459 C   0  0  0  0  0  0  0  0  0  0  0  0
    5.8724    7.4781   -0.8757 C   0  0  0  0  0  0  0  0  0  0  0  0
    4.6437    6.8556   -0.8602 C   0  0  0  0  0  0  0  0  0  0  0  0
    4.4235    5.7698   -0.0081 C   0  0  0  0  0  0  0  0  0  0  0  0
    5.4502    5.3239    0.8287 C   0  0  0  0  0  0  0  0  0  0  0  0
    6.6775    5.9490    0.8029 C   0  0  0  0  0  0  0  0  0  0  0  0
    3.1091    5.1003    0.0125 C   0  0  0  0  0  0  0  0  0  0  0  0
    2.8825    3.7307    0.0082 C   0  0  0  0  0  0  0  0  0  0  0  0
    1.4291    3.5473    0.0345 C   0  0  0  0  0  0  0  0  0  0  0  0
    0.8859    4.7392    0.0515 N   0  0  0  0  0  0  0  0  0  0  0  0
    1.8912    5.7111    0.0393 N   0  0  0  0  0  0  0  0  0  0  0  0
   -0.0964    4.9254    0.0704 H   0  0  0  0  0  0  0  0  0  0  0  0
    1.1628    2.0873    0.0304 C   0  0  0  0  0  0  0  0  0  0  0  0
   -0.0244    1.3662    0.0477 C   0  0  0  0  0  0  0  0  0  0  0  0
    0.0000   -0.0186    0.0381 C   0  0  0  0  0  0  0  0  0  0  0  0
    1.2005   -0.6982    0.0112 C   0  0  0  0  0  0  0  0  0  0  0  0
    2.4018    0.0027   -0.0067 C   0  0  0  0  0  0  0  0  0  0  0  0
    2.3907    1.4034    0.0028 C   0  0  0  0  0  0  0  0  0  0  0  0
    3.4877    2.3922   -0.0117 C   0  0  0  0  0  0  0  0  0  0  0  0
    4.6783    2.1430   -0.0353 O   0  0  0  0  0  0  0  0  0  0  0  0
    3.6115   -0.6858   -0.0334 N   0  0  0  0  0  0  0  0  0  0  0  0
    3.6642   -1.9364   -0.5329 C   0  0  0  0  0  0  0  0  0  0  0  0
    2.6800   -2.4253   -1.0530 O   0  0  0  0  0  0  0  0  0  0  0  0
    4.8080   -2.6452   -0.4559 N   0  0  0  0  0  0  0  0  0  0  0  0
    9.3044    6.0885    0.5678 H   0  0  0  0  0  0  0  0  0  0  0  0
   10.0199    7.7128    0.7002 H   0  0  0  0  0  0  0  0  0  0  0  0
    8.7563    7.2009    1.8445 H   0  0  0  0  0  0  0  0  0  0  0  0
    6.0435    8.3173   -1.5335 H   0  0  0  0  0  0  0  0  0  0  0  0
    3.8517    7.2062   -1.5052 H   0  0  0  0  0  0  0  0  0  0  0  0
    5.2830    4.4881    1.4920 H   0  0  0  0  0  0  0  0  0  0  0  0
    7.4729    5.6022    1.4459 H   0  0  0  0  0  0  0  0  0  0  0  0
   -0.9701    1.8875    0.0643 H   0  0  0  0  0  0  0  0  0  0  0  0
   -0.9281   -0.5708    0.0522 H   0  0  0  0  0  0  0  0  0  0  0  0
    1.2075   -1.7782    0.0042 H   0  0  0  0  0  0  0  0  0  0  0  0
    4.4164   -0.2654    0.3076 H   0  0  0  0  0  0  0  0  0  0  0  0
    5.5933   -2.2552   -0.0409 H   0  0  0  0  0  0  0  0  0  0  0  0
    4.8459   -3.5453   -0.8154 H   0  0  0  0  0  0  0  0  0  0  0  0
  1  2  1  0        0
  1 27  1  0        0
  1 28  1  0        0
  1 29  1  0        0
  2  3  1  0        0
  3  8  2  0        0
  3  4  1  0        0
  4  5  2  0        0
  4 30  1  0        0
  5  6  1  0        0
  5 31  1  0        0
  6  7  2  0        0
  6  9  1  0        0
  7  8  1  0        0
  7 32  1  0        0
  8 33  1  0        0
  9 10  1  0        0
  9 13  2  0        0
 10 21  1  0        0
 10 11  2  0        0
 11 15  1  0        0
 11 12  1  0        0
 12 14  1  0        0
 12 13  1  0        0
 15 20  2  0        0
 15 16  1  0        0
 16 17  2  0        0
 16 34  1  0        0
 17 18  1  0        0
 17 35  1  0        0
 18 19  2  0        0
 18 36  1  0        0
 19 20  1  0        0
 19 23  1  0        0
 20 21  1  0        0
 21 22  2  0        0
 23 24  1  0        0
 23 37  1  0        0
 24 25  2  0        0
 24 26  1  0        0
 26 38  1  0        0
 26 39  1  0        0
M  END
>  <MolfileName> (7)
ZINC00023904

$$$$
ZINC00582575
csCF1202/ 12301312233D

 52 54  0  0  0  0  0  0  0  0999 V2000
   -1.2135   -5.4556    0.8244 C   0  0  0  0  0  0  0  0  0  0  0  0
   -1.3406   -5.1862   -0.6763 C   0  0  0  0  0  0  0  0  0  0  0  0
   -2.7443   -5.5728   -1.1468 C   0  0  0  0  0  0  0  0  0  0  0  0
   -1.1025   -3.6998   -0.9497 C   0  0  2  0  0  0  0  0  0  0  0  0
   -1.8657   -3.1101   -0.4419 H   0  0  0  0  0  0  0  0  0  0  0  0
   -1.1755   -3.4401   -2.4557 C   0  0  0  0  0  0  0  0  0  0  0  0
   -0.2531   -4.2967   -3.1320 O   0  0  0  0  0  0  0  0  0  0  0  0
    0.2213   -3.3177   -0.4518 N   0  0  0  0  0  0  0  0  0  0  0  0
    0.4768   -2.0017   -0.1029 C   0  0  0  0  0  0  0  0  0  0  0  0
   -0.4939   -1.1056   -0.2284 N   0  0  0  0  0  0  0  0  0  0  0  0
   -0.2983    0.1681    0.0934 C   0  0  0  0  0  0  0  0  0  0  0  0
    0.9655    0.5539    0.5735 C   0  0  0  0  0  0  0  0  0  0  0  0
    1.9621   -0.4291    0.6896 C   0  0  0  0  0  0  0  0  0  0  0  0
    1.6799   -1.6816    0.3446 N   0  0  0  0  0  0  0  0  0  0  0  0
    3.0735    0.2137    1.1732 N   0  0  0  0  0  0  0  0  0  0  0  0
    2.7466    1.5282    1.3371 C   0  0  0  0  0  0  0  0  0  0  0  0
    1.5098    1.7253    0.9848 N   0  0  0  0  0  0  0  0  0  0  0  0
    4.3728   -0.3989    1.4608 C   0  0  0  0  0  0  0  0  0  0  0  0
    5.4513    0.2665    0.6034 C   0  0  0  0  0  0  0  0  0  0  0  0
    4.7094   -0.2096    2.9412 C   0  0  0  0  0  0  0  0  0  0  0  0
   -1.3154    1.0971   -0.0462 N   0  0  0  0  0  0  0  0  0  0  0  0
   -2.5997    0.6785   -0.4055 C   0  0  0  0  0  0  0  0  0  0  0  0
   -3.0974   -0.5279    0.0711 C   0  0  0  0  0  0  0  0  0  0  0  0
   -4.3665   -0.9391   -0.2855 C   0  0  0  0  0  0  0  0  0  0  0  0
   -5.1426   -0.1518   -1.1162 C   0  0  0  0  0  0  0  0  0  0  0  0
   -4.6506    1.0508   -1.5926 C   0  0  0  0  0  0  0  0  0  0  0  0
   -3.3829    1.4704   -1.2350 C   0  0  0  0  0  0  0  0  0  0  0  0
   -5.6288    2.0365   -2.6343 Cl  0  0  0  0  0  0  0  0  0  0  0  0
   -1.9533   -4.8639    1.3637 H   0  0  0  0  0  0  0  0  0  0  0  0
   -1.3832   -6.5146    1.0191 H   0  0  0  0  0  0  0  0  0  0  0  0
   -0.2136   -5.1802    1.1596 H   0  0  0  0  0  0  0  0  0  0  0  0
   -0.6009   -5.7779   -1.2156 H   0  0  0  0  0  0  0  0  0  0  0  0
   -2.9087   -6.6349   -0.9651 H   0  0  0  0  0  0  0  0  0  0  0  0
   -3.4846   -4.9913   -0.5973 H   0  0  0  0  0  0  0  0  0  0  0  0
   -2.8395   -5.3675   -2.2130 H   0  0  0  0  0  0  0  0  0  0  0  0
   -2.1861   -3.6419   -2.8106 H   0  0  0  0  0  0  0  0  0  0  0  0
   -0.9204   -2.3998   -2.6578 H   0  0  0  0  0  0  0  0  0  0  0  0
   -0.2455   -4.1862   -4.0927 H   0  0  0  0  0  0  0  0  0  0  0  0
    0.9190   -3.9863   -0.3666 H   0  0  0  0  0  0  0  0  0  0  0  0
    3.4156    2.2920    1.7050 H   0  0  0  0  0  0  0  0  0  0  0  0
    4.3314   -1.4635    1.2308 H   0  0  0  0  0  0  0  0  0  0  0  0
    5.4927    1.3312    0.8334 H   0  0  0  0  0  0  0  0  0  0  0  0
    6.4181   -0.1892    0.8174 H   0  0  0  0  0  0  0  0  0  0  0  0
    5.2115    0.1317   -0.4513 H   0  0  0  0  0  0  0  0  0  0  0  0
    3.9411   -0.6836    3.5520 H   0  0  0  0  0  0  0  0  0  0  0  0
    5.6762   -0.6653    3.1552 H   0  0  0  0  0  0  0  0  0  0  0  0
    4.7508    0.8551    3.1712 H   0  0  0  0  0  0  0  0  0  0  0  0
   -1.4511    1.5757    0.8213 H   0  0  0  0  0  0  0  0  0  0  0  0
   -2.4921   -1.1438    0.7196 H   0  0  0  0  0  0  0  0  0  0  0  0
   -4.7536   -1.8767    0.0852 H   0  0  0  0  0  0  0  0  0  0  0  0
   -6.1348   -0.4758   -1.3935 H   0  0  0  0  0  0  0  0  0  0  0  0
   -3.0005    2.4108   -1.6035 H   0  0  0  0  0  0  0  0  0  0  0  0
  1  2  1  0        0
  1 29  1  0        0
  1 30  1  0        0
  1 31  1  0        0
  2  3  1  0        0
  2  4  1  0        0
  2 32  1  0        0
  3 33  1  0        0
  3 34  1  0        0
  3 35  1  0        0
  4  5  1  0        0
  4  6  1  0        0
  4  8  1  0        0
  6  7  1  0        0
  6 36  1  0        0
  6 37  1  0        0
  7 38  1  0        0
  8  9  1  0        0
  8 39  1  0        0
  9 14  2  0        0
  9 10  1  0        0
 10 11  2  0        0
 11 12  1  0        0
 11 21  1  0        0
 12 17  1  0        0
 12 13  2  0        0
 13 14  1  0        0
 13 15  1  0        0
 15 16  1  0        0
 15 18  1  0        0
 16 17  2  0        0
 16 40  1  0        0
 18 19  1  0        0
 18 20  1  0        0
 18 41  1  0        0
 19 42  1  0        0
 19 43  1  0        0
 19 44  1  0        0
 20 45  1  0        0
 20 46  1  0        0
 20 47  1  0        0
 21 22  1  0        0
 21 48  1  0        0
 22 27  2  0        0
 22 23  1  0        0
 23 24  2  0        0
 23 49  1  0        0
 24 25  1  0        0
 24 50  1  0        0
 25 26  2  0        0
 25 51  1  0        0
 26 27  1  0        0
 26 28  1  0        0
 27 52  1  0        0
M  END
>  <MolfileName> (8)
ZINC00582575

$$$$
ZINC00603011
csCF1202/ 12301312233D

 50 53  0  0  0  0  0  0  0  0999 V2000
    0.2072    1.2907    0.3368 C   0  0  0  0  0  0  0  0  0  0  0  0
    0.2317   -0.0709    0.1073 C   0  0  0  0  0  0  0  0  0  0  0  0
    1.2279   -0.6236   -0.6767 C   0  0  0  0  0  0  0  0  0  0  0  0
    2.2026    0.1844   -1.2329 C   0  0  0  0  0  0  0  0  0  0  0  0
    2.1842    1.5467   -1.0070 C   0  0  0  0  0  0  0  0  0  0  0  0
    1.1845    2.1052   -0.2208 C   0  0  0  0  0  0  0  0  0  0  0  0
    1.1623    3.4840    0.0092 N   0  0  0  0  0  0  0  0  0  0  0  0
    2.3516    4.1898    0.1063 C   0  0  0  0  0  0  0  0  0  0  0  0
    2.3058    5.5084    0.2065 N   0  0  0  0  0  0  0  0  0  0  0  0
    3.4251    6.2168    0.3069 C   0  0  0  0  0  0  0  0  0  0  0  0
    4.6618    5.5486    0.2939 C   0  0  0  0  0  0  0  0  0  0  0  0
    4.6614    4.1499    0.1802 C   0  0  0  0  0  0  0  0  0  0  0  0
    3.4973    3.5203    0.0901 N   0  0  0  0  0  0  0  0  0  0  0  0
    5.8254    3.4572    0.1632 O   0  0  0  0  0  0  0  0  0  0  0  0
    5.7329    2.0361    0.0450 C   0  0  0  0  0  0  0  0  0  0  0  0
    7.1386    1.4319    0.0433 C   0  0  0  0  0  0  0  0  0  0  0  0
    7.8907    1.8938   -1.2064 C   0  0  0  0  0  0  0  0  0  0  0  0
    9.2964    1.2897   -1.2081 C   0  0  0  0  0  0  0  0  0  0  0  0
    9.1953   -0.2370   -1.2089 C   0  0  0  0  0  0  0  0  0  0  0  0
    8.4432   -0.6989    0.0408 C   0  0  0  0  0  0  0  0  0  0  0  0
    7.0375   -0.0948    0.0425 C   0  0  0  0  0  0  0  0  0  0  0  0
    5.6275    6.4943    0.4037 N   0  0  0  0  0  0  0  0  0  0  0  0
    5.0757    7.6697    0.4813 C   0  0  0  0  0  0  0  0  0  0  0  0
    3.7176    7.5520    0.4259 N   0  0  0  0  0  0  0  0  0  0  0  0
    3.0566    8.3014    0.4649 H   0  0  0  0  0  0  0  0  0  0  0  0
    1.2555   -2.3613   -0.9670 S   0  0  0  0  0  0  0  0  0  0  0  0
    2.5992   -2.6990   -1.2829 O   0  0  0  0  0  0  0  0  0  0  0  0
    0.5515   -2.9643    0.1101 O   0  0  0  0  0  0  0  0  0  0  0  0
    0.3629   -2.6438   -2.3330 N   0  0  0  0  0  0  0  0  0  0  0  0
   -0.5736    1.7223    0.9455 H   0  0  0  0  0  0  0  0  0  0  0  0
   -0.5276   -0.7048    0.5408 H   0  0  0  0  0  0  0  0  0  0  0  0
    2.9794   -0.2505   -1.8444 H   0  0  0  0  0  0  0  0  0  0  0  0
    2.9457    2.1771   -1.4417 H   0  0  0  0  0  0  0  0  0  0  0  0
    0.3148    3.9468    0.1008 H   0  0  0  0  0  0  0  0  0  0  0  0
    5.1672    1.6375    0.8872 H   0  0  0  0  0  0  0  0  0  0  0  0
    5.2267    1.7810   -0.8860 H   0  0  0  0  0  0  0  0  0  0  0  0
    7.6761    1.7600    0.9330 H   0  0  0  0  0  0  0  0  0  0  0  0
    7.3531    1.5658   -2.0960 H   0  0  0  0  0  0  0  0  0  0  0  0
    7.9627    2.9815   -1.2058 H   0  0  0  0  0  0  0  0  0  0  0  0
    9.8339    1.6178   -0.3185 H   0  0  0  0  0  0  0  0  0  0  0  0
    9.8322    1.6188   -2.0984 H   0  0  0  0  0  0  0  0  0  0  0  0
   10.1967   -0.6674   -1.2101 H   0  0  0  0  0  0  0  0  0  0  0  0
    8.6577   -0.5651   -2.0985 H   0  0  0  0  0  0  0  0  0  0  0  0
    8.9807   -0.3708    0.9305 H   0  0  0  0  0  0  0  0  0  0  0  0
    8.3712   -1.7866    0.0403 H   0  0  0  0  0  0  0  0  0  0  0  0
    6.5017   -0.4239    0.9329 H   0  0  0  0  0  0  0  0  0  0  0  0
    6.4999   -0.4229   -0.8471 H   0  0  0  0  0  0  0  0  0  0  0  0
    5.6134    8.6015    0.5763 H   0  0  0  0  0  0  0  0  0  0  0  0
   -0.0524   -1.9036   -2.8026 H   0  0  0  0  0  0  0  0  0  0  0  0
    0.2554   -3.5494   -2.6634 H   0  0  0  0  0  0  0  0  0  0  0  0
  1  6  2  0        0
  1  2  1  0        0
  1 30  1  0        0
  2  3  2  0        0
  2 31  1  0        0
  3  4  1  0        0
  3 26  1  0        0
  4  5  2  0        0
  4 32  1  0        0
  5  6  1  0        0
  5 33  1  0        0
  6  7  1  0        0
  7  8  1  0        0
  7 34  1  0        0
  8 13  2  0        0
  8  9  1  0        0
  9 10  2  0        0
 10 24  1  0        0
 10 11  1  0        0
 11 12  2  0        0
 11 22  1  0        0
 12 13  1  0        0
 12 14  1  0        0
 14 15  1  0        0
 15 16  1  0        0
 15 35  1  0        0
 15 36  1  0        0
 16 21  1  0        0
 16 17  1  0        0
 16 37  1  0        0
 17 18  1  0        0
 17 38  1  0        0
 17 39  1  0        0
 18 19  1  0        0
 18 40  1  0        0
 18 41  1  0        0
 19 20  1  0        0
 19 42  1  0        0
 19 43  1  0        0
 20 21  1  0        0
 20 44  1  0        0
 20 45  1  0        0
 21 46  1  0        0
 21 47  1  0        0
 22 23  2  0        0
 23 24  1  0        0
 23 48  1  0        0
 24 25  1  0        0
 26 27  2  0        0
 26 28  2  0        0
 26 29  1  0        0
 29 49  1  0        0
 29 50  1  0        0
M  END
>  <MolfileName> (9)
ZINC00603011

$$$$
ZINC01487345
csCF1202/ 12301312233D

 57 59  0  0  0  0  0  0  0  0999 V2000
   -1.1993    3.0950    1.2740 C   0  0  0  0  0  0  0  0  0  0  0  0
   -1.2091    2.2185    0.0201 C   0  0  0  0  0  0  0  0  0  0  0  0
   -1.2116    3.1086   -1.2244 C   0  0  0  0  0  0  0  0  0  0  0  0
   -0.0165    1.3677    0.0096 N   0  0  0  0  0  0  0  0  0  0  0  0
    1.2795    1.7943   -0.0005 C   0  0  0  0  0  0  0  0  0  0  0  0
    2.0834    0.7716   -0.0137 N   0  0  0  0  0  0  0  0  0  0  0  0
    1.3573   -0.3733   -0.0129 C   0  0  0  0  0  0  0  0  0  0  0  0
    0.0021   -0.0041    0.0020 C   0  0  0  0  0  0  0  0  0  0  0  0
   -0.9280   -0.9537    0.0062 N   0  0  0  0  0  0  0  0  0  0  0  0
   -0.5853   -2.2317   -0.0036 C   0  0  0  0  0  0  0  0  0  0  0  0
    0.6819   -2.6250   -0.0178 N   0  0  0  0  0  0  0  0  0  0  0  0
    1.6747   -1.7425   -0.0229 C   0  0  0  0  0  0  0  0  0  0  0  0
    2.9931   -2.1622   -0.0382 N   0  0  0  0  0  0  0  0  0  0  0  0
    3.3062   -3.5933   -0.0490 C   0  0  0  0  0  0  0  0  0  0  0  0
    4.8015   -3.7803   -0.0648 C   0  0  0  0  0  0  0  0  0  0  0  0
    5.4737   -3.8651   -1.2700 C   0  0  0  0  0  0  0  0  0  0  0  0
    6.8451   -4.0309   -1.2872 C   0  0  0  0  0  0  0  0  0  0  0  0
    7.5464   -4.1235   -0.0938 C   0  0  0  0  0  0  0  0  0  0  0  0
    6.8688   -4.0437    1.1142 C   0  0  0  0  0  0  0  0  0  0  0  0
    5.4981   -3.8723    1.1260 C   0  0  0  0  0  0  0  0  0  0  0  0
    8.8948   -4.2917   -0.1080 O   0  0  0  0  0  0  0  0  0  0  0  0
    9.5259   -4.3654   -1.3880 C   0  0  0  0  0  0  0  0  0  0  0  0
   -1.5836   -3.1919    0.0007 N   0  0  0  0  0  0  0  0  0  0  0  0
   -1.2321   -4.6141   -0.0099 C   0  0  0  0  0  0  0  0  0  0  0  0
   -1.0964   -5.1166    1.4288 C   0  0  0  0  0  0  0  0  0  0  0  0
   -2.3665   -5.0460    2.0799 O   0  0  0  0  0  0  0  0  0  0  0  0
   -2.9910   -2.7853    0.0158 C   0  0  0  0  0  0  0  0  0  0  0  0
   -3.4943   -2.6363   -1.4213 C   0  0  0  0  0  0  0  0  0  0  0  0
   -3.4760   -3.9110   -2.0670 O   0  0  0  0  0  0  0  0  0  0  0  0
   -2.0866    3.7280    1.2819 H   0  0  0  0  0  0  0  0  0  0  0  0
   -1.1975    2.4609    2.1606 H   0  0  0  0  0  0  0  0  0  0  0  0
   -0.3067    3.7206    1.2730 H   0  0  0  0  0  0  0  0  0  0  0  0
   -2.1017    1.5929    0.0211 H   0  0  0  0  0  0  0  0  0  0  0  0
   -1.2186    2.4841   -2.1177 H   0  0  0  0  0  0  0  0  0  0  0  0
   -2.0989    3.7416   -1.2166 H   0  0  0  0  0  0  0  0  0  0  0  0
   -0.3190    3.7342   -1.2254 H   0  0  0  0  0  0  0  0  0  0  0  0
    1.5918    2.8281    0.0015 H   0  0  0  0  0  0  0  0  0  0  0  0
    3.4456   -1.8097   -0.8573 H   0  0  0  0  0  0  0  0  0  0  0  0
    2.8907   -4.0628    0.8427 H   0  0  0  0  0  0  0  0  0  0  0  0
    2.8731   -4.0533   -0.9372 H   0  0  0  0  0  0  0  0  0  0  0  0
    4.9267   -3.7974   -2.1988 H   0  0  0  0  0  0  0  0  0  0  0  0
    7.3702   -4.0927   -2.2289 H   0  0  0  0  0  0  0  0  0  0  0  0
    7.4125   -4.1159    2.0446 H   0  0  0  0  0  0  0  0  0  0  0  0
    4.9703   -3.8098    2.0662 H   0  0  0  0  0  0  0  0  0  0  0  0
    9.1196   -5.2094   -1.9453 H   0  0  0  0  0  0  0  0  0  0  0  0
    9.3400   -3.4431   -1.9384 H   0  0  0  0  0  0  0  0  0  0  0  0
   10.5996   -4.4998   -1.2565 H   0  0  0  0  0  0  0  0  0  0  0  0
   -2.0136   -5.1777   -0.5194 H   0  0  0  0  0  0  0  0  0  0  0  0
   -0.2858   -4.7506   -0.5332 H   0  0  0  0  0  0  0  0  0  0  0  0
   -0.7488   -6.1497    1.4216 H   0  0  0  0  0  0  0  0  0  0  0  0
   -0.3785   -4.4955    1.9644 H   0  0  0  0  0  0  0  0  0  0  0  0
   -2.3553   -5.3497    2.9979 H   0  0  0  0  0  0  0  0  0  0  0  0
   -3.5823   -3.5421    0.5313 H   0  0  0  0  0  0  0  0  0  0  0  0
   -3.0882   -1.8321    0.5355 H   0  0  0  0  0  0  0  0  0  0  0  0
   -4.5130   -2.2488   -1.4112 H   0  0  0  0  0  0  0  0  0  0  0  0
   -2.8481   -1.9454   -1.9628 H   0  0  0  0  0  0  0  0  0  0  0  0
   -3.7832   -3.8920   -2.9837 H   0  0  0  0  0  0  0  0  0  0  0  0
  1  2  1  0        0
  1 30  1  0        0
  1 31  1  0        0
  1 32  1  0        0
  2  3  1  0        0
  2  4  1  0        0
  2 33  1  0        0
  3 34  1  0        0
  3 35  1  0        0
  3 36  1  0        0
  4  8  1  0        0
  4  5  1  0        0
  5  6  2  0        0
  5 37  1  0        0
  6  7  1  0        0
  7 12  2  0        0
  7  8  1  0        0
  8  9  2  0        0
  9 10  1  0        0
 10 11  2  0        0
 10 23  1  0        0
 11 12  1  0        0
 12 13  1  0        0
 13 14  1  0        0
 13 38  1  0        0
 14 15  1  0        0
 14 39  1  0        0
 14 40  1  0        0
 15 20  2  0        0
 15 16  1  0        0
 16 17  2  0        0
 16 41  1  0        0
 17 18  1  0        0
 17 42  1  0        0
 18 19  2  0        0
 18 21  1  0        0
 19 20  1  0        0
 19 43  1  0        0
 20 44  1  0        0
 21 22  1  0        0
 22 45  1  0        0
 22 46  1  0        0
 22 47  1  0        0
 23 24  1  0        0
 23 27  1  0        0
 24 25  1  0        0
 24 48  1  0        0
 24 49  1  0        0
 25 26  1  0        0
 25 50  1  0        0
 25 51  1  0        0
 26 52  1  0        0
 27 28  1  0        0
 27 53  1  0        0
 27 54  1  0        0
 28 29  1  0        0
 28 55  1  0        0
 28 56  1  0        0
 29 57  1  0        0
M  END
>  <MolfileName> (10)
ZINC01487345

$$$$
ZINC01641925
csCF1202/ 12301312233D

 40 42  0  0  0  0  0  0  0  0999 V2000
    2.8290    5.3682    0.0021 C   0  0  0  0  0  0  0  0  0  0  0  0
    2.3990    3.9677   -0.0003 N   0  0  0  0  0  0  0  0  0  0  0  0
    3.2135    2.8731   -0.0137 C   0  0  0  0  0  0  0  0  0  0  0  0
    2.4976    1.7869   -0.0122 N   0  0  0  0  0  0  0  0  0  0  0  0
    1.1818    2.1136    0.0021 C   0  0  0  0  0  0  0  0  0  0  0  0
    1.1036    3.5162    0.0099 C   0  0  0  0  0  0  0  0  0  0  0  0
   -0.0914    4.0982    0.0237 N   0  0  0  0  0  0  0  0  0  0  0  0
   -1.1954    3.3688    0.0301 C   0  0  0  0  0  0  0  0  0  0  0  0
   -1.1678    2.0423    0.0186 N   0  0  0  0  0  0  0  0  0  0  0  0
   -0.0167    1.3794    0.0096 C   0  0  0  0  0  0  0  0  0  0  0  0
    0.0021   -0.0041    0.0020 N   0  0  0  0  0  0  0  0  0  0  0  0
   -1.2565   -0.7538    0.0100 C   0  0  0  0  0  0  0  0  0  0  0  0
   -0.9611   -2.2315   -0.0007 C   0  0  0  0  0  0  0  0  0  0  0  0
   -0.8426   -2.9039   -1.2027 C   0  0  0  0  0  0  0  0  0  0  0  0
   -0.5664   -4.2584   -1.2126 C   0  0  0  0  0  0  0  0  0  0  0  0
   -0.4195   -4.9425   -0.0205 C   0  0  0  0  0  0  0  0  0  0  0  0
   -0.5436   -4.2712    1.1815 C   0  0  0  0  0  0  0  0  0  0  0  0
   -0.8142   -2.9157    1.1914 C   0  0  0  0  0  0  0  0  0  0  0  0
   -2.4220    4.0122    0.0441 N   0  0  0  0  0  0  0  0  0  0  0  0
   -3.6600    3.2289    0.0514 C   0  0  0  0  0  0  0  0  0  0  0  0
   -4.8621    4.1752    0.0666 C   0  0  0  0  0  0  0  0  0  0  0  0
   -4.8951    4.9230   -1.1507 O   0  0  0  0  0  0  0  0  0  0  0  0
    2.9455    5.7107    1.0303 H   0  0  0  0  0  0  0  0  0  0  0  0
    3.7815    5.4567   -0.5205 H   0  0  0  0  0  0  0  0  0  0  0  0
    2.0800    5.9791   -0.5018 H   0  0  0  0  0  0  0  0  0  0  0  0
    4.2930    2.9038   -0.0245 H   0  0  0  0  0  0  0  0  0  0  0  0
    0.4702   -0.3266   -0.8208 H   0  0  0  0  0  0  0  0  0  0  0  0
   -1.8231   -0.5030    0.9068 H   0  0  0  0  0  0  0  0  0  0  0  0
   -1.8401   -0.4935   -0.8731 H   0  0  0  0  0  0  0  0  0  0  0  0
   -0.9618   -2.3703   -2.1341 H   0  0  0  0  0  0  0  0  0  0  0  0
   -0.4691   -4.7828   -2.1517 H   0  0  0  0  0  0  0  0  0  0  0  0
   -0.2074   -6.0015   -0.0282 H   0  0  0  0  0  0  0  0  0  0  0  0
   -0.4288   -4.8058    2.1129 H   0  0  0  0  0  0  0  0  0  0  0  0
   -0.9112   -2.3912    2.1305 H   0  0  0  0  0  0  0  0  0  0  0  0
   -2.4612    4.9814    0.0490 H   0  0  0  0  0  0  0  0  0  0  0  0
   -3.7002    2.6047   -0.8412 H   0  0  0  0  0  0  0  0  0  0  0  0
   -3.6844    2.5963    0.9386 H   0  0  0  0  0  0  0  0  0  0  0  0
   -5.7800    3.5951    0.1616 H   0  0  0  0  0  0  0  0  0  0  0  0
   -4.7755    4.8591    0.9109 H   0  0  0  0  0  0  0  0  0  0  0  0
   -5.6332    5.5449   -1.2104 H   0  0  0  0  0  0  0  0  0  0  0  0
  1  2  1  0        0
  1 23  1  0        0
  1 24  1  0        0
  1 25  1  0        0
  2  6  1  0        0
  2  3  1  0        0
  3  4  2  0        0
  3 26  1  0        0
  4  5  1  0        0
  5 10  2  0        0
  5  6  1  0        0
  6  7  2  0        0
  7  8  1  0        0
  8  9  2  0        0
  8 19  1  0        0
  9 10  1  0        0
 10 11  1  0        0
 11 12  1  0        0
 11 27  1  0        0
 12 13  1  0        0
 12 28  1  0        0
 12 29  1  0        0
 13 18  2  0        0
 13 14  1  0        0
 14 15  2  0        0
 14 30  1  0        0
 15 16  1  0        0
 15 31  1  0        0
 16 17  2  0        0
 16 32  1  0        0
 17 18  1  0        0
 17 33  1  0        0
 18 34  1  0        0
 19 20  1  0        0
 19 35  1  0        0
 20 21  1  0        0
 20 36  1  0        0
 20 37  1  0        0
 21 22  1  0        0
 21 38  1  0        0
 21 39  1  0        0
 22 40  1  0        0
M  END
>  <MolfileName> (11)
ZINC01641925

$$$$
ZINC01649340
csCF1202/ 12301312233D

 52 54  0  0  0  0  0  0  0  0999 V2000
   -6.0226    1.5364    2.1515 C   0  0  0  0  0  0  0  0  0  0  0  0
   -5.9639    1.9481    0.6791 C   0  0  0  0  0  0  0  0  0  0  0  0
   -4.6694    1.4241    0.0543 C   0  0  2  0  0  0  0  0  0  0  0  0
   -3.8172    1.7731    0.6375 H   0  0  0  0  0  0  0  0  0  0  0  0
   -4.5506    1.9400   -1.3812 C   0  0  0  0  0  0  0  0  0  0  0  0
   -5.7233    1.5814   -2.1148 O   0  0  0  0  0  0  0  0  0  0  0  0
   -4.6889   -0.0408    0.0467 N   0  0  0  0  0  0  0  0  0  0  0  0
   -3.4986   -0.7492    0.0315 C   0  0  0  0  0  0  0  0  0  0  0  0
   -2.3536   -0.0782    0.0241 N   0  0  0  0  0  0  0  0  0  0  0  0
   -1.1866   -0.7121    0.0096 C   0  0  0  0  0  0  0  0  0  0  0  0
   -1.1851   -2.1180   -0.0038 C   0  0  0  0  0  0  0  0  0  0  0  0
   -2.4207   -2.7852    0.0108 C   0  0  0  0  0  0  0  0  0  0  0  0
   -3.5423   -2.0714    0.0253 N   0  0  0  0  0  0  0  0  0  0  0  0
   -2.1276   -4.1254    0.0011 N   0  0  0  0  0  0  0  0  0  0  0  0
   -0.7687   -4.2466   -0.0128 C   0  0  0  0  0  0  0  0  0  0  0  0
   -0.2179   -3.0681   -0.0122 N   0  0  0  0  0  0  0  0  0  0  0  0
   -3.0960   -5.2247    0.0046 C   0  0  0  0  0  0  0  0  0  0  0  0
   -2.9038   -6.0777   -1.2509 C   0  0  0  0  0  0  0  0  0  0  0  0
   -2.8803   -6.0905    1.2475 C   0  0  0  0  0  0  0  0  0  0  0  0
    0.0021   -0.0041    0.0020 N   0  0  0  0  0  0  0  0  0  0  0  0
   -0.0178    1.4608    0.0101 C   0  0  0  0  0  0  0  0  0  0  0  0
    1.3960    1.9824   -0.0006 C   0  0  0  0  0  0  0  0  0  0  0  0
    2.0539    2.2206    1.1916 C   0  0  0  0  0  0  0  0  0  0  0  0
    3.3526    2.6940    1.1817 C   0  0  0  0  0  0  0  0  0  0  0  0
    3.9896    2.9397   -0.0202 C   0  0  0  0  0  0  0  0  0  0  0  0
    3.3297    2.7069   -1.2124 C   0  0  0  0  0  0  0  0  0  0  0  0
    2.0330    2.2281   -1.2026 C   0  0  0  0  0  0  0  0  0  0  0  0
   -5.1675    1.9570    2.6808 H   0  0  0  0  0  0  0  0  0  0  0  0
   -6.9449    1.9098    2.5967 H   0  0  0  0  0  0  0  0  0  0  0  0
   -5.9973    0.4493    2.2261 H   0  0  0  0  0  0  0  0  0  0  0  0
   -5.9892    3.0353    0.6045 H   0  0  0  0  0  0  0  0  0  0  0  0
   -6.8190    1.5276    0.1499 H   0  0  0  0  0  0  0  0  0  0  0  0
   -4.4467    3.0250   -1.3699 H   0  0  0  0  0  0  0  0  0  0  0  0
   -3.6754    1.4962   -1.8556 H   0  0  0  0  0  0  0  0  0  0  0  0
   -5.7170    1.8770   -3.0355 H   0  0  0  0  0  0  0  0  0  0  0  0
   -5.5353   -0.5146    0.0522 H   0  0  0  0  0  0  0  0  0  0  0  0
   -0.2299   -5.1826   -0.0224 H   0  0  0  0  0  0  0  0  0  0  0  0
   -4.1073   -4.8180    0.0162 H   0  0  0  0  0  0  0  0  0  0  0  0
   -1.8926   -6.4844   -1.2625 H   0  0  0  0  0  0  0  0  0  0  0  0
   -3.6243   -6.8956   -1.2483 H   0  0  0  0  0  0  0  0  0  0  0  0
   -3.0575   -5.4609   -2.1363 H   0  0  0  0  0  0  0  0  0  0  0  0
   -1.8690   -6.4972    1.2359 H   0  0  0  0  0  0  0  0  0  0  0  0
   -3.0172   -5.4828    2.1419 H   0  0  0  0  0  0  0  0  0  0  0  0
   -3.6008   -6.9084    1.2501 H   0  0  0  0  0  0  0  0  0  0  0  0
    0.5375   -0.2430    0.8121 H   0  0  0  0  0  0  0  0  0  0  0  0
   -0.5450    1.8219   -0.8730 H   0  0  0  0  0  0  0  0  0  0  0  0
   -0.5280    1.8123    0.9069 H   0  0  0  0  0  0  0  0  0  0  0  0
    1.5547    2.0328    2.1307 H   0  0  0  0  0  0  0  0  0  0  0  0
    3.8683    2.8756    2.1132 H   0  0  0  0  0  0  0  0  0  0  0  0
    5.0030    3.3131   -0.0279 H   0  0  0  0  0  0  0  0  0  0  0  0
    3.8274    2.8989   -2.1515 H   0  0  0  0  0  0  0  0  0  0  0  0
    1.5175    2.0462   -2.1340 H   0  0  0  0  0  0  0  0  0  0  0  0
  1  2  1  0        0
  1 28  1  0        0
  1 29  1  0        0
  1 30  1  0        0
  2  3  1  0        0
  2 31  1  0        0
  2 32  1  0        0
  3  4  1  0        0
  3  5  1  0        0
  3  7  1  0        0
  5  6  1  0        0
  5 33  1  0        0
  5 34  1  0        0
  6 35  1  0        0
  7  8  1  0        0
  7 36  1  0        0
  8 13  2  0        0
  8  9  1  0        0
  9 10  2  0        0
 10 11  1  0        0
 10 20  1  0        0
 11 16  1  0        0
 11 12  2  0        0
 12 13  1  0        0
 12 14  1  0        0
 14 15  1  0        0
 14 17  1  0        0
 15 16  2  0        0
 15 37  1  0        0
 17 18  1  0        0
 17 19  1  0        0
 17 38  1  0        0
 18 39  1  0        0
 18 40  1  0        0
 18 41  1  0        0
 19 42  1  0        0
 19 43  1  0        0
 19 44  1  0        0
 20 21  1  0        0
 20 45  1  0        0
 21 22  1  0        0
 21 46  1  0        0
 21 47  1  0        0
 22 27  2  0        0
 22 23  1  0        0
 23 24  2  0        0
 23 48  1  0        0
 24 25  1  0        0
 24 49  1  0        0
 25 26  2  0        0
 25 50  1  0        0
 26 27  1  0        0
 26 51  1  0        0
 27 52  1  0        0
M  END
>  <MolfileName> (12)
ZINC01649340

$$$$
ZINC03591113
csCF1202/ 12301312233D

 62 66  0  0  0  0  0  0  0  0999 V2000
   -4.8796   -3.8664    8.8403 C   0  0  0  0  0  0  0  0  0  0  0  0
   -5.5377   -2.8434    8.1836 C   0  0  0  0  0  0  0  0  0  0  0  0
   -5.4348   -2.7250    6.8102 C   0  0  0  0  0  0  0  0  0  0  0  0
   -4.6743   -3.6298    6.0934 C   0  0  0  0  0  0  0  0  0  0  0  0
   -4.0209   -4.6562    6.7495 C   0  0  0  0  0  0  0  0  0  0  0  0
   -4.1191   -4.7713    8.1236 C   0  0  0  0  0  0  0  0  0  0  0  0
   -4.5626   -3.5010    4.5961 C   0  0  0  0  0  0  0  0  0  0  0  0
   -3.4184   -2.6488    4.2633 N   0  0  0  0  0  0  0  0  0  0  0  0
   -3.1147   -2.3842    2.9397 C   0  0  0  0  0  0  0  0  0  0  0  0
   -2.0199   -1.5688    2.6033 C   0  0  0  0  0  0  0  0  0  0  0  0
   -1.7573   -1.3343    1.2438 C   0  0  0  0  0  0  0  0  0  0  0  0
   -2.5463   -1.8862    0.3269 N   0  0  0  0  0  0  0  0  0  0  0  0
   -3.5668   -2.6472    0.6872 C   0  0  0  0  0  0  0  0  0  0  0  0
   -3.8509   -2.8953    1.9595 N   0  0  0  0  0  0  0  0  0  0  0  0
   -4.3659   -3.2045   -0.2976 N   0  0  0  0  0  0  0  0  0  0  0  0
   -5.5024   -4.0511    0.0735 C   0  0  2  0  0  0  0  0  0  0  0  0
   -5.0199   -5.4869    0.2890 C   0  0  0  0  0  0  0  0  0  0  0  0
   -4.3923   -6.0134   -1.0032 C   0  0  0  0  0  0  0  0  0  0  0  0
   -5.4341   -5.9881   -2.1234 C   0  0  2  0  0  0  0  0  0  0  0  0
   -5.9166   -4.5523   -2.3389 C   0  0  0  0  0  0  0  0  0  0  0  0
   -6.5443   -4.0258   -1.0467 C   0  0  0  0  0  0  0  0  0  0  0  0
   -0.6528   -0.5215    1.2060 N   0  0  0  0  0  0  0  0  0  0  0  0
   -0.2727   -0.2882    2.4955 C   0  0  0  0  0  0  0  0  0  0  0  0
   -1.0791   -0.8989    3.3134 N   0  0  0  0  0  0  0  0  0  0  0  0
    0.0021   -0.0041    0.0020 C   0  0  0  0  0  0  0  0  0  0  0  0
   -0.0188    1.5345    0.0105 C   0  0  0  0  0  0  0  0  0  0  0  0
    1.4534    1.9953   -0.0011 C   0  0  0  0  0  0  0  0  0  0  0  0
    2.2325    0.7924    0.5864 C   0  0  0  0  0  0  0  0  0  0  0  0
    1.4862   -0.4246   -0.0144 C   0  0  0  0  0  0  0  0  0  0  0  0
   -4.9594   -3.9585    9.9134 H   0  0  0  0  0  0  0  0  0  0  0  0
   -6.1318   -2.1364    8.7436 H   0  0  0  0  0  0  0  0  0  0  0  0
   -5.9490   -1.9257    6.2971 H   0  0  0  0  0  0  0  0  0  0  0  0
   -3.4303   -5.3658    6.1891 H   0  0  0  0  0  0  0  0  0  0  0  0
   -3.6047   -5.5703    8.6367 H   0  0  0  0  0  0  0  0  0  0  0  0
   -5.4751   -3.0548    4.2007 H   0  0  0  0  0  0  0  0  0  0  0  0
   -4.4206   -4.4881    4.1561 H   0  0  0  0  0  0  0  0  0  0  0  0
   -3.5487   -1.7432    4.6670 H   0  0  0  0  0  0  0  0  0  0  0  0
   -4.1729   -3.0341   -1.2328 H   0  0  0  0  0  0  0  0  0  0  0  0
   -5.9496   -3.6760    0.9941 H   0  0  0  0  0  0  0  0  0  0  0  0
   -4.2777   -5.5049    1.0870 H   0  0  0  0  0  0  0  0  0  0  0  0
   -5.8656   -6.1168    0.5650 H   0  0  0  0  0  0  0  0  0  0  0  0
   -4.0485   -7.0363   -0.8497 H   0  0  0  0  0  0  0  0  0  0  0  0
   -3.5466   -5.3835   -1.2793 H   0  0  0  0  0  0  0  0  0  0  0  0
   -6.2798   -6.6180   -1.8474 H   0  0  0  0  0  0  0  0  0  0  0  0
   -6.6588   -4.5343   -3.1370 H   0  0  0  0  0  0  0  0  0  0  0  0
   -5.0710   -3.9224   -2.6150 H   0  0  0  0  0  0  0  0  0  0  0  0
   -7.3899   -4.6557   -0.7707 H   0  0  0  0  0  0  0  0  0  0  0  0
   -6.8880   -3.0029   -1.2002 H   0  0  0  0  0  0  0  0  0  0  0  0
   -4.5047   -7.4411   -3.2475 H   0  0  0  0  0  0  0  0  0  0  0  0
   -5.4798   -6.4269   -4.1343 H   0  0  0  0  0  0  0  0  0  0  0  0
    0.5715    0.3161    2.7931 H   0  0  0  0  0  0  0  0  0  0  0  0
   -0.5022   -0.3794   -0.8884 H   0  0  0  0  0  0  0  0  0  0  0  0
   -0.5332    1.9058   -0.8758 H   0  0  0  0  0  0  0  0  0  0  0  0
   -0.5162    1.8962    0.9104 H   0  0  0  0  0  0  0  0  0  0  0  0
    1.7808    2.2008   -1.0203 H   0  0  0  0  0  0  0  0  0  0  0  0
    1.5822    2.8767    0.6270 H   0  0  0  0  0  0  0  0  0  0  0  0
    2.1693    0.7856    1.6746 H   0  0  0  0  0  0  0  0  0  0  0  0
    3.2720    0.8083    0.2589 H   0  0  0  0  0  0  0  0  0  0  0  0
    1.6390   -1.3091    0.6040 H   0  0  0  0  0  0  0  0  0  0  0  0
    1.8183   -0.6122   -1.0355 H   0  0  0  0  0  0  0  0  0  0  0  0
   -4.8123   -6.4773   -3.3665 N   0  3  0  0  0  0  0  0  0  0  0  0
   -3.9993   -5.8915   -3.5905 H   0  0  0  0  0  0  0  0  0  0  0  0
  1  6  2  0        0
  1  2  1  0        0
  1 30  1  0        0
  2  3  2  0        0
  2 31  1  0        0
  3  4  1  0        0
  3 32  1  0        0
  4  5  2  0        0
  4  7  1  0        0
  5  6  1  0        0
  5 33  1  0        0
  6 34  1  0        0
  7  8  1  0        0
  7 35  1  0        0
  7 36  1  0        0
  8  9  1  0        0
  8 37  1  0        0
  9 14  2  0        0
  9 10  1  0        0
 10 24  1  0        0
 10 11  2  0        0
 11 12  1  0        0
 11 22  1  0        0
 12 13  2  0        0
 13 14  1  0        0
 13 15  1  0        0
 15 16  1  0        0
 15 38  1  0        0
 16 21  1  0        0
 16 17  1  0        0
 16 39  1  0        0
 17 18  1  0        0
 17 40  1  0        0
 17 41  1  0        0
 18 19  1  0        0
 18 42  1  0        0
 18 43  1  0        0
 19 20  1  0        0
 19 44  1  0        0
 19 61  1  0        0
 20 21  1  0        0
 20 45  1  0        0
 20 46  1  0        0
 21 47  1  0        0
 21 48  1  0        0
 22 23  1  0        0
 22 25  1  0        0
 23 24  2  0        0
 23 51  1  0        0
 25 29  1  0        0
 25 26  1  0        0
 25 52  1  0        0
 26 27  1  0        0
 26 53  1  0        0
 26 54  1  0        0
 27 28  1  0        0
 27 55  1  0        0
 27 56  1  0        0
 28 29  1  0        0
 28 57  1  0        0
 28 58  1  0        0
 29 59  1  0        0
 29 60  1  0        0
 49 61  1  0        0
 50 61  1  0        0
 61 62  1  0        0
M  CHG  1  61   1
M  END
>  <MolfileName> (13)
ZINC03591113

$$$$
ZINC03814433
csCF1202/ 12301312233D

 53 56  0  0  0  0  0  0  0  0999 V2000
    3.0506   -6.0453   -0.1984 C   0  0  0  0  0  0  0  0  0  0  0  0
    2.0699   -4.1652   -1.3662 C   0  0  0  0  0  0  0  0  0  0  0  0
    1.9740   -2.6380   -1.3857 C   0  0  0  0  0  0  0  0  0  0  0  0
    1.2687   -2.1595   -0.1136 C   0  0  1  0  0  0  0  0  0  0  0  0
    2.0409   -2.6611    1.1097 C   0  0  0  0  0  0  0  0  0  0  0  0
    2.1362   -4.1876    1.0560 C   0  0  0  0  0  0  0  0  0  0  0  0
    1.2245   -0.6532   -0.0985 C   0  0  0  0  0  0  0  0  0  0  0  0
    2.4065    0.0726   -0.1239 C   0  0  0  0  0  0  0  0  0  0  0  0
    2.3858    1.4617   -0.1105 C   0  0  0  0  0  0  0  0  0  0  0  0
    1.1772    2.1340   -0.0711 C   0  0  0  0  0  0  0  0  0  0  0  0
   -0.0195    1.4062   -0.0460 C   0  0  0  0  0  0  0  0  0  0  0  0
    0.0015    0.0016   -0.0596 C   0  0  0  0  0  0  0  0  0  0  0  0
   -1.2634   -0.4730   -0.0296 O   0  0  0  0  0  0  0  0  0  0  0  0
   -2.1749    0.5271    0.0045 C   0  0  0  0  0  0  0  0  0  0  0  0
   -3.5221    0.3823    0.0405 C   0  0  0  0  0  0  0  0  0  0  0  0
   -4.1209   -0.9557   -0.0713 C   0  0  0  0  0  0  0  0  0  0  0  0
   -5.5101   -1.0997   -0.1570 C   0  0  0  0  0  0  0  0  0  0  0  0
   -6.0633   -2.3577   -0.2669 C   0  0  0  0  0  0  0  0  0  0  0  0
   -5.2492   -3.4771   -0.2810 C   0  0  0  0  0  0  0  0  0  0  0  0
   -3.8744   -3.3436   -0.1913 C   0  0  0  0  0  0  0  0  0  0  0  0
   -3.3049   -2.0924   -0.0867 C   0  0  0  0  0  0  0  0  0  0  0  0
   -5.9669   -5.0808   -0.4143 S   0  0  0  0  0  0  0  0  0  0  0  0
   -7.2345   -4.9083   -1.0330 O   0  0  0  0  0  0  0  0  0  0  0  0
   -4.9646   -5.9306   -0.9551 O   0  0  0  0  0  0  0  0  0  0  0  0
   -6.2605   -5.6154    1.1253 N   0  0  0  0  0  0  0  0  0  0  0  0
   -1.4361    1.8011    0.0013 C   0  0  0  0  0  0  0  0  0  0  0  0
   -1.8954    2.9298    0.0265 O   0  0  0  0  0  0  0  0  0  0  0  0
    1.1512    3.4904   -0.0578 O   0  0  0  0  0  0  0  0  0  0  0  0
    3.5954   -0.5812   -0.1619 O   0  0  0  0  0  0  0  0  0  0  0  0
    3.6231   -6.3098   -1.0874 H   0  0  0  0  0  0  0  0  0  0  0  0
    3.6073   -6.3366    0.6923 H   0  0  0  0  0  0  0  0  0  0  0  0
    2.0930   -6.5659   -0.2147 H   0  0  0  0  0  0  0  0  0  0  0  0
    1.0672   -4.5917   -1.3370 H   0  0  0  0  0  0  0  0  0  0  0  0
    2.5843   -4.5083   -2.2639 H   0  0  0  0  0  0  0  0  0  0  0  0
    1.4044   -2.3202   -2.2590 H   0  0  0  0  0  0  0  0  0  0  0  0
    2.9756   -2.2104   -1.4292 H   0  0  0  0  0  0  0  0  0  0  0  0
    0.2528   -2.5540   -0.0900 H   0  0  0  0  0  0  0  0  0  0  0  0
    3.0440   -2.2344    1.1070 H   0  0  0  0  0  0  0  0  0  0  0  0
    1.5192   -2.3598    2.0181 H   0  0  0  0  0  0  0  0  0  0  0  0
    1.1333   -4.6140    1.0739 H   0  0  0  0  0  0  0  0  0  0  0  0
    2.6990   -4.5468    1.9177 H   0  0  0  0  0  0  0  0  0  0  0  0
    3.3124    2.0163   -0.1308 H   0  0  0  0  0  0  0  0  0  0  0  0
   -4.1557    1.2499    0.1513 H   0  0  0  0  0  0  0  0  0  0  0  0
   -6.1469   -0.2276   -0.1417 H   0  0  0  0  0  0  0  0  0  0  0  0
   -7.1351   -2.4704   -0.3380 H   0  0  0  0  0  0  0  0  0  0  0  0
   -3.2461   -4.2219   -0.2037 H   0  0  0  0  0  0  0  0  0  0  0  0
   -2.2321   -1.9899   -0.0171 H   0  0  0  0  0  0  0  0  0  0  0  0
   -6.0344   -5.0556    1.8845 H   0  0  0  0  0  0  0  0  0  0  0  0
   -6.6586   -6.4884    1.2679 H   0  0  0  0  0  0  0  0  0  0  0  0
    1.1671    3.8754    0.8291 H   0  0  0  0  0  0  0  0  0  0  0  0
    3.9161   -0.7627   -1.0559 H   0  0  0  0  0  0  0  0  0  0  0  0
    2.8463   -4.5821   -0.1794 N   0  3  1  0  0  0  0  0  0  0  0  0
    3.7616   -4.1174   -0.2002 H   0  0  0  0  0  0  0  0  0  0  0  0
  1 30  1  0        0
  1 31  1  0        0
  1 32  1  0        0
  1 52  1  0        0
  2  3  1  0        0
  2 33  1  0        0
  2 34  1  0        0
  2 52  1  0        0
  3  4  1  0        0
  3 35  1  0        0
  3 36  1  0        0
  4  5  1  0        0
  4  7  1  0        0
  4 37  1  0        0
  5  6  1  0        0
  5 38  1  0        0
  5 39  1  0        0
  6 40  1  0        0
  6 41  1  0        0
  6 52  1  0        0
  7 12  2  0        0
  7  8  1  0        0
  8  9  2  0        0
  8 29  1  0        0
  9 10  1  0        0
  9 42  1  0        0
 10 11  2  0        0
 10 28  1  0        0
 11 26  1  0        0
 11 12  1  0        0
 12 13  1  0        0
 13 14  1  0        0
 14 15  2  0        0
 14 26  1  0        0
 15 16  1  0        0
 15 43  1  0        0
 16 21  2  0        0
 16 17  1  0        0
 17 18  2  0        0
 17 44  1  0        0
 18 19  1  0        0
 18 45  1  0        0
 19 20  2  0        0
 19 22  1  0        0
 20 21  1  0        0
 20 46  1  0        0
 21 47  1  0        0
 22 23  2  0        0
 22 24  2  0        0
 22 25  1  0        0
 25 48  1  0        0
 25 49  1  0        0
 26 27  2  0        0
 28 50  1  0        0
 29 51  1  0        0
 52 53  1  0        0
M  CHG  1  52   1
M  END
>  <MolfileName> (14)
ZINC03814433

$$$$
ZINC03814434
csCF1202/ 12301312233D

 62 69  0  0  0  0  0  0  0  0999 V2000
   -2.3570    2.8290   -2.3345 C   0  0  0  0  0  0  0  0  0  0  0  0
   -1.2842    2.8435   -1.2438 C   0  0  1  0  0  0  0  0  0  0  0  0
   -2.0068    2.9526    0.0931 C   0  0  1  0  0  0  0  0  0  0  0  0
   -2.8198    2.2274    0.1271 H   0  0  0  0  0  0  0  0  0  0  0  0
   -1.0196    2.6675    1.2305 C   0  0  1  0  0  0  0  0  0  0  0  0
   -1.5339    2.7330    2.1894 H   0  0  0  0  0  0  0  0  0  0  0  0
   -0.4649    1.2509    1.0354 C   0  0  0  0  0  0  0  0  0  0  0  0
    0.2388    1.1649   -0.3133 C   0  0  1  0  0  0  0  0  0  0  0  0
    0.4251    0.1093   -0.5111 H   0  0  0  0  0  0  0  0  0  0  0  0
   -0.5662    1.6491   -1.3643 O   0  0  0  0  0  0  0  0  0  0  0  0
    1.5418    1.8289   -0.2575 N   0  0  0  0  0  0  0  0  0  0  0  0
    2.7171    1.2786    0.1898 C   0  0  0  0  0  0  0  0  0  0  0  0
    2.9933    0.0054    0.6872 C   0  0  0  0  0  0  0  0  0  0  0  0
    4.3004   -0.2551    1.0620 C   0  0  0  0  0  0  0  0  0  0  0  0
    5.3019    0.6944    0.9549 C   0  0  0  0  0  0  0  0  0  0  0  0
    5.0544    1.9651    0.4646 C   0  0  0  0  0  0  0  0  0  0  0  0
    3.7417    2.2473    0.0810 C   0  0  0  0  0  0  0  0  0  0  0  0
    3.1241    3.4508   -0.4681 C   0  0  0  0  0  0  0  0  0  0  0  0
    1.7769    3.1390   -0.6641 C   0  0  0  0  0  0  0  0  0  0  0  0
    0.9058    4.0955   -1.1973 C   0  0  0  0  0  0  0  0  0  0  0  0
   -0.4507    4.0241   -1.4763 N   0  0  0  0  0  0  0  0  0  0  0  0
   -0.8696    5.2234   -2.0015 C   0  0  0  0  0  0  0  0  0  0  0  0
   -2.1290    5.6315   -2.4395 C   0  0  0  0  0  0  0  0  0  0  0  0
   -2.2387    6.9225   -2.9287 C   0  0  0  0  0  0  0  0  0  0  0  0
   -1.1571    7.7834   -2.9863 C   0  0  0  0  0  0  0  0  0  0  0  0
    0.1034    7.4016   -2.5569 C   0  0  0  0  0  0  0  0  0  0  0  0
    0.2330    6.1042   -2.0622 C   0  0  0  0  0  0  0  0  0  0  0  0
    1.3856    5.3708   -1.5357 C   0  0  0  0  0  0  0  0  0  0  0  0
    2.7261    5.6816   -1.3329 C   0  0  0  0  0  0  0  0  0  0  0  0
    3.6016    4.7393   -0.8032 C   0  0  0  0  0  0  0  0  0  0  0  0
    4.9364    5.3498   -0.7038 C   0  0  0  0  0  0  0  0  0  0  0  0
    5.9270    4.7871   -0.2782 O   0  0  0  0  0  0  0  0  0  0  0  0
    4.9066    6.6168   -1.1504 N   0  0  0  0  0  0  0  0  0  0  0  0
    3.5385    6.9296   -1.5784 C   0  0  0  0  0  0  0  0  0  0  0  0
   -0.2524    4.8424    1.9681 C   0  0  0  0  0  0  0  0  0  0  0  0
   -2.5377    4.2710    0.2417 O   0  0  0  0  0  0  0  0  0  0  0  0
   -3.7291    4.3326    1.0283 C   0  0  0  0  0  0  0  0  0  0  0  0
   -1.9231    3.1672   -3.2755 H   0  0  0  0  0  0  0  0  0  0  0  0
   -2.7397    1.8155   -2.4544 H   0  0  0  0  0  0  0  0  0  0  0  0
   -3.1726    3.4941   -2.0508 H   0  0  0  0  0  0  0  0  0  0  0  0
   -1.2841    0.5324    1.0646 H   0  0  0  0  0  0  0  0  0  0  0  0
    0.2452    1.0255    1.8311 H   0  0  0  0  0  0  0  0  0  0  0  0
    2.2214   -0.7446    0.7762 H   0  0  0  0  0  0  0  0  0  0  0  0
    4.5469   -1.2321    1.4506 H   0  0  0  0  0  0  0  0  0  0  0  0
    6.3047    0.4365    1.2621 H   0  0  0  0  0  0  0  0  0  0  0  0
    5.8388    2.7029    0.3831 H   0  0  0  0  0  0  0  0  0  0  0  0
   -2.9815    4.9698   -2.3990 H   0  0  0  0  0  0  0  0  0  0  0  0
   -3.2006    7.2687   -3.2769 H   0  0  0  0  0  0  0  0  0  0  0  0
   -1.2993    8.7801   -3.3770 H   0  0  0  0  0  0  0  0  0  0  0  0
    0.9453    8.0765   -2.6027 H   0  0  0  0  0  0  0  0  0  0  0  0
    5.6629    7.2233   -1.1838 H   0  0  0  0  0  0  0  0  0  0  0  0
    3.5259    7.1826   -2.6386 H   0  0  0  0  0  0  0  0  0  0  0  0
    3.1416    7.7571   -0.9902 H   0  0  0  0  0  0  0  0  0  0  0  0
   -1.1474    5.3076    1.5549 H   0  0  0  0  0  0  0  0  0  0  0  0
   -0.4339    4.5637    3.0061 H   0  0  0  0  0  0  0  0  0  0  0  0
    0.5780    5.5468    1.9209 H   0  0  0  0  0  0  0  0  0  0  0  0
   -3.5235    3.9539    2.0295 H   0  0  0  0  0  0  0  0  0  0  0  0
   -4.0685    5.3663    1.0934 H   0  0  0  0  0  0  0  0  0  0  0  0
   -4.5042    3.7244    0.5619 H   0  0  0  0  0  0  0  0  0  0  0  0
    0.0884    3.6401    1.1843 N   0  3  0  0  0  0  0  0  0  0  0  0
    0.2620    3.9097    0.2089 H   0  0  0  0  0  0  0  0  0  0  0  0
    0.9340    3.2090    1.5759 H   0  0  0  0  0  0  0  0  0  0  0  0
  1  2  1  0        0
  1 38  1  0        0
  1 39  1  0        0
  1 40  1  0        0
  2 10  1  0        0
  2 21  1  0        0
  2  3  1  0        0
  3  4  1  0        0
  3  5  1  0        0
  3 36  1  0        0
  5  6  1  0        0
  5  7  1  0        0
  5 60  1  0        0
  7  8  1  0        0
  7 41  1  0        0
  7 42  1  0        0
  8  9  1  0        0
  8 10  1  0        0
  8 11  1  0        0
 11 19  1  0        0
 11 12  1  0        0
 12 17  2  0        0
 12 13  1  0        0
 13 14  2  0        0
 13 43  1  0        0
 14 15  1  0        0
 14 44  1  0        0
 15 16  2  0        0
 15 45  1  0        0
 16 17  1  0        0
 16 46  1  0        0
 17 18  1  0        0
 18 30  2  0        0
 18 19  1  0        0
 19 20  2  0        0
 20 28  1  0        0
 20 21  1  0        0
 21 22  1  0        0
 22 27  2  0        0
 22 23  1  0        0
 23 24  2  0        0
 23 47  1  0        0
 24 25  1  0        0
 24 48  1  0        0
 25 26  2  0        0
 25 49  1  0        0
 26 27  1  0        0
 26 50  1  0        0
 27 28  1  0        0
 28 29  2  0        0
 29 34  1  0        0
 29 30  1  0        0
 30 31  1  0        0
 31 32  2  0        0
 31 33  1  0        0
 33 34  1  0        0
 33 51  1  0        0
 34 52  1  0        0
 34 53  1  0        0
 35 54  1  0        0
 35 55  1  0        0
 35 56  1  0        0
 35 60  1  0        0
 36 37  1  0        0
 37 57  1  0        0
 37 58  1  0        0
 37 59  1  0        0
 60 61  1  0        0
 60 62  1  0        0
M  CHG  1  60   1
M  END
>  <MolfileName> (15)
ZINC03814434

$$$$
ZINC03814435
csCF1202/ 12301312233D

 63 70  0  0  0  0  0  0  0  0999 V2000
    4.0619    2.0036    0.7635 C   0  0  0  0  0  0  0  0  0  0  0  0
    3.6063    0.7749   -0.0261 C   0  0  1  0  0  0  0  0  0  0  0  0
    4.3715    0.7810   -1.3435 C   0  0  1  0  0  0  0  0  0  0  0  0
    5.4304    0.9506   -1.1483 H   0  0  0  0  0  0  0  0  0  0  0  0
    4.1907   -0.5706   -2.0435 C   0  0  1  0  0  0  0  0  0  0  0  0
    4.7447   -0.5770   -2.9822 H   0  0  0  0  0  0  0  0  0  0  0  0
    4.7328   -1.6632   -1.1150 C   0  0  0  0  0  0  0  0  0  0  0  0
    3.9628   -1.6384    0.1995 C   0  0  1  0  0  0  0  0  0  0  0  0
    4.5087   -2.2676    0.9026 H   0  0  0  0  0  0  0  0  0  0  0  0
    3.9045   -0.3450    0.7575 O   0  0  0  0  0  0  0  0  0  0  0  0
    2.6361   -2.2329    0.0305 N   0  0  0  0  0  0  0  0  0  0  0  0
    2.3305   -3.5701    0.0799 C   0  0  0  0  0  0  0  0  0  0  0  0
    3.1443   -4.6821    0.2946 C   0  0  0  0  0  0  0  0  0  0  0  0
    2.5310   -5.9232    0.2873 C   0  0  0  0  0  0  0  0  0  0  0  0
    1.1711   -6.0735    0.0769 C   0  0  0  0  0  0  0  0  0  0  0  0
    0.3412   -4.9866   -0.1381 C   0  0  0  0  0  0  0  0  0  0  0  0
    0.9410   -3.7257   -0.1331 C   0  0  0  0  0  0  0  0  0  0  0  0
    0.3926   -2.3855   -0.3187 C   0  0  0  0  0  0  0  0  0  0  0  0
    1.4724   -1.5069   -0.2063 C   0  0  0  0  0  0  0  0  0  0  0  0
    1.2709   -0.1280   -0.3337 C   0  0  0  0  0  0  0  0  0  0  0  0
    2.1698    0.9257   -0.2641 N   0  0  0  0  0  0  0  0  0  0  0  0
    1.4966    2.1098   -0.4493 C   0  0  0  0  0  0  0  0  0  0  0  0
    1.9599    3.4249   -0.4625 C   0  0  0  0  0  0  0  0  0  0  0  0
    1.0223    4.4217   -0.6749 C   0  0  0  0  0  0  0  0  0  0  0  0
   -0.3191    4.1433   -0.8681 C   0  0  0  0  0  0  0  0  0  0  0  0
   -0.8042    2.8459   -0.8559 C   0  0  0  0  0  0  0  0  0  0  0  0
    0.1266    1.8286   -0.6470 C   0  0  0  0  0  0  0  0  0  0  0  0
   -0.0182    0.3735   -0.5739 C   0  0  0  0  0  0  0  0  0  0  0  0
   -1.0915   -0.5036   -0.6899 C   0  0  0  0  0  0  0  0  0  0  0  0
   -0.9036   -1.8763   -0.5656 C   0  0  0  0  0  0  0  0  0  0  0  0
   -2.2055   -2.5402   -0.7344 C   0  0  0  0  0  0  0  0  0  0  0  0
   -2.3836   -3.7421   -0.6812 O   0  0  0  0  0  0  0  0  0  0  0  0
   -3.1700   -1.6311   -0.9556 N   0  0  0  0  0  0  0  0  0  0  0  0
   -2.5640   -0.2949   -0.9466 C   0  0  1  0  0  0  0  0  0  0  0  0
   -3.0011    0.3097   -0.1519 H   0  0  0  0  0  0  0  0  0  0  0  0
   -2.7571    0.3409   -2.2117 O   0  0  0  0  0  0  0  0  0  0  0  0
    2.5839   -1.7490   -3.4190 C   0  0  0  0  0  0  0  0  0  0  0  0
    3.8686    1.8231   -2.1820 O   0  0  0  0  0  0  0  0  0  0  0  0
    4.8417    2.3737   -3.0720 C   0  0  0  0  0  0  0  0  0  0  0  0
    4.2248    2.8358    0.0785 H   0  0  0  0  0  0  0  0  0  0  0  0
    3.2945    2.2747    1.4885 H   0  0  0  0  0  0  0  0  0  0  0  0
    4.9910    1.7758    1.2859 H   0  0  0  0  0  0  0  0  0  0  0  0
    5.7901   -1.4833   -0.9204 H   0  0  0  0  0  0  0  0  0  0  0  0
    4.6108   -2.6369   -1.5894 H   0  0  0  0  0  0  0  0  0  0  0  0
    4.2067   -4.5795    0.4591 H   0  0  0  0  0  0  0  0  0  0  0  0
    3.1340   -6.8041    0.4509 H   0  0  0  0  0  0  0  0  0  0  0  0
    0.7457   -7.0662    0.0808 H   0  0  0  0  0  0  0  0  0  0  0  0
   -0.7194   -5.1081   -0.3022 H   0  0  0  0  0  0  0  0  0  0  0  0
    3.0044    3.6559   -0.3140 H   0  0  0  0  0  0  0  0  0  0  0  0
    1.3492    5.4510   -0.6906 H   0  0  0  0  0  0  0  0  0  0  0  0
   -1.0071    4.9599   -1.0300 H   0  0  0  0  0  0  0  0  0  0  0  0
   -1.8526    2.6323   -1.0029 H   0  0  0  0  0  0  0  0  0  0  0  0
   -4.1097   -1.8257   -1.0975 H   0  0  0  0  0  0  0  0  0  0  0  0
   -3.6845    0.5020   -2.4335 H   0  0  0  0  0  0  0  0  0  0  0  0
    3.0433   -1.3415   -4.3195 H   0  0  0  0  0  0  0  0  0  0  0  0
    3.0547   -2.6998   -3.1693 H   0  0  0  0  0  0  0  0  0  0  0  0
    1.5193   -1.9054   -3.5931 H   0  0  0  0  0  0  0  0  0  0  0  0
    5.6650    2.7945   -2.4948 H   0  0  0  0  0  0  0  0  0  0  0  0
    5.2206    1.5888   -3.7265 H   0  0  0  0  0  0  0  0  0  0  0  0
    4.3816    3.1577   -3.6734 H   0  0  0  0  0  0  0  0  0  0  0  0
    2.7569   -0.8015   -2.3018 N   0  3  0  0  0  0  0  0  0  0  0  0
    2.3080    0.0903   -2.5415 H   0  0  0  0  0  0  0  0  0  0  0  0
    2.3189   -1.1893   -1.4580 H   0  0  0  0  0  0  0  0  0  0  0  0
  1  2  1  0        0
  1 40  1  0        0
  1 41  1  0        0
  1 42  1  0        0
  2 10  1  0        0
  2 21  1  0        0
  2  3  1  0        0
  3  4  1  0        0
  3  5  1  0        0
  3 38  1  0        0
  5  6  1  0        0
  5  7  1  0        0
  5 61  1  0        0
  7  8  1  0        0
  7 43  1  0        0
  7 44  1  0        0
  8  9  1  0        0
  8 10  1  0        0
  8 11  1  0        0
 11 19  1  0        0
 11 12  1  0        0
 12 17  2  0        0
 12 13  1  0        0
 13 14  2  0        0
 13 45  1  0        0
 14 15  1  0        0
 14 46  1  0        0
 15 16  2  0        0
 15 47  1  0        0
 16 17  1  0        0
 16 48  1  0        0
 17 18  1  0        0
 18 30  2  0        0
 18 19  1  0        0
 19 20  2  0        0
 20 28  1  0        0
 20 21  1  0        0
 21 22  1  0        0
 22 27  2  0        0
 22 23  1  0        0
 23 24  2  0        0
 23 49  1  0        0
 24 25  1  0        0
 24 50  1  0        0
 25 26  2  0        0
 25 51  1  0        0
 26 27  1  0        0
 26 52  1  0        0
 27 28  1  0        0
 28 29  2  0        0
 29 34  1  0        0
 29 30  1  0        0
 30 31  1  0        0
 31 32  2  0        0
 31 33  1  0        0
 33 34  1  0        0
 33 53  1  0        0
 34 35  1  0        0
 34 36  1  0        0
 36 54  1  0        0
 37 55  1  0        0
 37 56  1  0        0
 37 57  1  0        0
 37 61  1  0        0
 38 39  1  0        0
 39 58  1  0        0
 39 59  1  0        0
 39 60  1  0        0
 61 62  1  0        0
 61 63  1  0        0
M  CHG  1  61   1
M  END
>  <MolfileName> (16)
ZINC03814435

$$$$
ZINC03814437
csCF1202/ 12301312233D

 54 56  0  0  0  0  0  0  0  0999 V2000
    5.0947    5.3993   -2.2047 C   0  0  0  0  0  0  0  0  0  0  0  0
    4.7269    5.5222   -0.7247 C   0  0  0  0  0  0  0  0  0  0  0  0
    3.3855    6.2458   -0.5909 C   0  0  0  0  0  0  0  0  0  0  0  0
    4.6168    4.1259   -0.1089 C   0  0  2  0  0  0  0  0  0  0  0  0
    3.8447    3.5592   -0.6293 H   0  0  0  0  0  0  0  0  0  0  0  0
    4.2490    4.2489    1.3711 C   0  0  0  0  0  0  0  0  0  0  0  0
    5.1990    5.0889    2.0299 O   0  0  0  0  0  0  0  0  0  0  0  0
    5.9012    3.4331   -0.2370 N   0  0  0  0  0  0  0  0  0  0  0  0
    5.9432    2.0485   -0.2483 C   0  0  0  0  0  0  0  0  0  0  0  0
    4.8065    1.3722   -0.1417 N   0  0  0  0  0  0  0  0  0  0  0  0
    4.7946    0.0441   -0.1476 C   0  0  0  0  0  0  0  0  0  0  0  0
    6.0179   -0.6387   -0.2638 C   0  0  0  0  0  0  0  0  0  0  0  0
    7.1950    0.1191   -0.3802 C   0  0  0  0  0  0  0  0  0  0  0  0
    7.1152    1.4459   -0.3655 N   0  0  0  0  0  0  0  0  0  0  0  0
    8.2198   -0.7870   -0.4853 N   0  0  0  0  0  0  0  0  0  0  0  0
    7.6690   -2.0343   -0.4387 C   0  0  0  0  0  0  0  0  0  0  0  0
    6.3772   -1.9449   -0.3122 N   0  0  0  0  0  0  0  0  0  0  0  0
    9.6440   -0.4728   -0.6232 C   0  0  0  0  0  0  0  0  0  0  0  0
   10.4152   -1.0744    0.5533 C   0  0  0  0  0  0  0  0  0  0  0  0
   10.1716   -1.0613   -1.9332 C   0  0  0  0  0  0  0  0  0  0  0  0
    3.6031   -0.6532   -0.0358 N   0  0  0  0  0  0  0  0  0  0  0  0
    2.3924    0.0331   -0.0375 C   0  0  0  0  0  0  0  0  0  0  0  0
    2.2526    1.1929   -0.7955 C   0  0  0  0  0  0  0  0  0  0  0  0
    1.0675    1.8714   -0.8023 C   0  0  0  0  0  0  0  0  0  0  0  0
   -0.0121    1.4036   -0.0459 C   0  0  0  0  0  0  0  0  0  0  0  0
    0.1256    0.2382    0.7174 C   0  0  0  0  0  0  0  0  0  0  0  0
    1.3246   -0.4417    0.7179 C   0  0  0  0  0  0  0  0  0  0  0  0
   -1.2093   -0.3492    1.6589 Cl  0  0  0  0  0  0  0  0  0  0  0  0
   -1.2888    2.1387   -0.0478 C   0  0  0  0  0  0  0  0  0  0  0  0
   -2.2257    1.7308    0.6100 O   0  0  0  0  0  0  0  0  0  0  0  0
    5.1731    6.3940   -2.6435 H   0  0  0  0  0  0  0  0  0  0  0  0
    6.0503    4.8838   -2.3000 H   0  0  0  0  0  0  0  0  0  0  0  0
    4.3226    4.8325   -2.7251 H   0  0  0  0  0  0  0  0  0  0  0  0
    5.4989    6.0890   -0.2043 H   0  0  0  0  0  0  0  0  0  0  0  0
    3.1234    6.3334    0.4635 H   0  0  0  0  0  0  0  0  0  0  0  0
    3.4639    7.2405   -1.0297 H   0  0  0  0  0  0  0  0  0  0  0  0
    2.6134    5.6790   -1.1113 H   0  0  0  0  0  0  0  0  0  0  0  0
    3.2538    4.6839    1.4633 H   0  0  0  0  0  0  0  0  0  0  0  0
    4.2575    3.2606    1.8309 H   0  0  0  0  0  0  0  0  0  0  0  0
    5.0276    5.2117    2.9736 H   0  0  0  0  0  0  0  0  0  0  0  0
    6.7223    3.9438   -0.3138 H   0  0  0  0  0  0  0  0  0  0  0  0
    8.2233   -2.9593   -0.4986 H   0  0  0  0  0  0  0  0  0  0  0  0
    9.7784    0.6089   -0.6307 H   0  0  0  0  0  0  0  0  0  0  0  0
   10.2808   -2.1560    0.5608 H   0  0  0  0  0  0  0  0  0  0  0  0
   11.4749   -0.8406    0.4507 H   0  0  0  0  0  0  0  0  0  0  0  0
   10.0394   -0.6551    1.4866 H   0  0  0  0  0  0  0  0  0  0  0  0
   10.0372   -2.1430   -1.9258 H   0  0  0  0  0  0  0  0  0  0  0  0
    9.6222   -0.6328   -2.7714 H   0  0  0  0  0  0  0  0  0  0  0  0
   11.2313   -0.8276   -2.0358 H   0  0  0  0  0  0  0  0  0  0  0  0
    3.5188   -1.2937   -0.7992 H   0  0  0  0  0  0  0  0  0  0  0  0
    3.0844    1.5570   -1.3803 H   0  0  0  0  0  0  0  0  0  0  0  0
    0.9639    2.7702   -1.3920 H   0  0  0  0  0  0  0  0  0  0  0  0
    1.4356   -1.3414    1.3049 H   0  0  0  0  0  0  0  0  0  0  0  0
   -1.4177    3.2635   -0.7789 O   0  5  0  0  0  0  0  0  0  0  0  0
  1  2  1  0        0
  1 31  1  0        0
  1 32  1  0        0
  1 33  1  0        0
  2  3  1  0        0
  2  4  1  0        0
  2 34  1  0        0
  3 35  1  0        0
  3 36  1  0        0
  3 37  1  0        0
  4  5  1  0        0
  4  6  1  0        0
  4  8  1  0        0
  6  7  1  0        0
  6 38  1  0        0
  6 39  1  0        0
  7 40  1  0        0
  8  9  1  0        0
  8 41  1  0        0
  9 14  2  0        0
  9 10  1  0        0
 10 11  2  0        0
 11 12  1  0        0
 11 21  1  0        0
 12 17  1  0        0
 12 13  2  0        0
 13 14  1  0        0
 13 15  1  0        0
 15 16  1  0        0
 15 18  1  0        0
 16 17  2  0        0
 16 42  1  0        0
 18 19  1  0        0
 18 20  1  0        0
 18 43  1  0        0
 19 44  1  0        0
 19 45  1  0        0
 19 46  1  0        0
 20 47  1  0        0
 20 48  1  0        0
 20 49  1  0        0
 21 22  1  0        0
 21 50  1  0        0
 22 27  2  0        0
 22 23  1  0        0
 23 24  2  0        0
 23 51  1  0        0
 24 25  1  0        0
 24 52  1  0        0
 25 26  2  0        0
 25 29  1  0        0
 26 27  1  0        0
 26 28  1  0        0
 27 53  1  0        0
 29 30  2  0        0
 29 54  1  0        0
M  CHG  1  54  -1
M  END
>  <MolfileName> (17)
ZINC03814437

$$$$
ZINC03814439
csCF1202/ 12301312233D

 59 63  0  0  0  0  0  0  0  0999 V2000
   -0.2727   -0.2882    2.4955 C   0  0  0  0  0  0  0  0  0  0  0  0
   -1.0791   -0.8989    3.3134 N   0  0  0  0  0  0  0  0  0  0  0  0
   -2.0200   -1.5687    2.6033 C   0  0  0  0  0  0  0  0  0  0  0  0
   -3.1153   -2.3835    2.9396 C   0  0  0  0  0  0  0  0  0  0  0  0
   -3.8517   -2.8943    1.9595 N   0  0  0  0  0  0  0  0  0  0  0  0
   -3.5672   -2.6466    0.6871 C   0  0  0  0  0  0  0  0  0  0  0  0
   -2.5465   -1.8859    0.3269 N   0  0  0  0  0  0  0  0  0  0  0  0
   -1.7573   -1.3343    1.2438 C   0  0  0  0  0  0  0  0  0  0  0  0
   -0.6528   -0.5215    1.2060 N   0  0  0  0  0  0  0  0  0  0  0  0
    0.0021   -0.0041    0.0020 C   0  0  0  0  0  0  0  0  0  0  0  0
   -0.0188    1.5345    0.0105 C   0  0  0  0  0  0  0  0  0  0  0  0
    1.4534    1.9953   -0.0011 C   0  0  0  0  0  0  0  0  0  0  0  0
    2.2325    0.7924    0.5864 C   0  0  0  0  0  0  0  0  0  0  0  0
    1.4862   -0.4246   -0.0144 C   0  0  0  0  0  0  0  0  0  0  0  0
   -4.3668   -3.2031   -0.2976 N   0  0  0  0  0  0  0  0  0  0  0  0
   -5.5039   -4.0490    0.0734 C   0  0  2  0  0  0  0  0  0  0  0  0
   -5.0224   -5.4852    0.2886 C   0  0  0  0  0  0  0  0  0  0  0  0
   -4.3952   -6.0119   -1.0037 C   0  0  0  0  0  0  0  0  0  0  0  0
   -5.4372   -5.9858   -2.1238 C   0  0  2  0  0  0  0  0  0  0  0  0
   -5.9187   -4.5495   -2.3390 C   0  0  0  0  0  0  0  0  0  0  0  0
   -6.5459   -4.0229   -1.0467 C   0  0  0  0  0  0  0  0  0  0  0  0
   -3.4193   -2.6477    4.2633 N   0  0  0  0  0  0  0  0  0  0  0  0
   -4.5643   -3.4988    4.5961 C   0  0  0  0  0  0  0  0  0  0  0  0
   -4.6780   -3.6294    6.1162 C   0  0  0  0  0  0  0  0  0  0  0  0
   -4.4951   -5.0228    6.7212 C   0  0  0  0  0  0  0  0  0  0  0  0
   -5.8857   -4.3867    6.6719 C   0  0  0  0  0  0  0  0  0  0  0  0
    0.5714    0.3163    2.7932 H   0  0  0  0  0  0  0  0  0  0  0  0
   -0.5022   -0.3794   -0.8884 H   0  0  0  0  0  0  0  0  0  0  0  0
   -0.5332    1.9058   -0.8758 H   0  0  0  0  0  0  0  0  0  0  0  0
   -0.5162    1.8962    0.9104 H   0  0  0  0  0  0  0  0  0  0  0  0
    1.7808    2.2008   -1.0203 H   0  0  0  0  0  0  0  0  0  0  0  0
    1.5822    2.8767    0.6270 H   0  0  0  0  0  0  0  0  0  0  0  0
    2.1693    0.7856    1.6746 H   0  0  0  0  0  0  0  0  0  0  0  0
    3.2720    0.8083    0.2589 H   0  0  0  0  0  0  0  0  0  0  0  0
    1.6390   -1.3091    0.6040 H   0  0  0  0  0  0  0  0  0  0  0  0
    1.8183   -0.6122   -1.0355 H   0  0  0  0  0  0  0  0  0  0  0  0
   -4.1738   -3.0328   -1.2328 H   0  0  0  0  0  0  0  0  0  0  0  0
   -5.9507   -3.6738    0.9941 H   0  0  0  0  0  0  0  0  0  0  0  0
   -4.2801   -5.5038    1.0866 H   0  0  0  0  0  0  0  0  0  0  0  0
   -5.8685   -6.1146    0.5647 H   0  0  0  0  0  0  0  0  0  0  0  0
   -4.0522   -7.0351   -0.8504 H   0  0  0  0  0  0  0  0  0  0  0  0
   -3.5492   -5.3825   -1.2798 H   0  0  0  0  0  0  0  0  0  0  0  0
   -6.2832   -6.6151   -1.8477 H   0  0  0  0  0  0  0  0  0  0  0  0
   -6.6610   -4.5309   -3.1370 H   0  0  0  0  0  0  0  0  0  0  0  0
   -5.0726   -3.9202   -2.6151 H   0  0  0  0  0  0  0  0  0  0  0  0
   -7.3919   -4.6522   -0.7706 H   0  0  0  0  0  0  0  0  0  0  0  0
   -6.8889   -2.9997   -1.2000 H   0  0  0  0  0  0  0  0  0  0  0  0
   -4.5089   -7.4392   -3.2482 H   0  0  0  0  0  0  0  0  0  0  0  0
   -5.4834   -6.4242   -4.1348 H   0  0  0  0  0  0  0  0  0  0  0  0
   -2.6438   -3.1050    4.6985 H   0  0  0  0  0  0  0  0  0  0  0  0
   -5.4764   -3.0518    4.2006 H   0  0  0  0  0  0  0  0  0  0  0  0
   -4.4232   -4.4861    4.1561 H   0  0  0  0  0  0  0  0  0  0  0  0
   -4.3097   -2.7790    6.6900 H   0  0  0  0  0  0  0  0  0  0  0  0
   -4.2938   -5.8464    6.0362 H   0  0  0  0  0  0  0  0  0  0  0  0
   -4.0062   -5.0892    7.6932 H   0  0  0  0  0  0  0  0  0  0  0  0
   -6.3118   -4.0347    7.6114 H   0  0  0  0  0  0  0  0  0  0  0  0
   -6.5995   -4.7915    5.9545 H   0  0  0  0  0  0  0  0  0  0  0  0
   -4.8158   -6.4752   -3.3671 N   0  3  0  0  0  0  0  0  0  0  0  0
   -4.0024   -5.8899   -3.5910 H   0  0  0  0  0  0  0  0  0  0  0  0
  1  9  1  0        0
  1  2  2  0        0
  1 27  1  0        0
  2  3  1  0        0
  3  8  2  0        0
  3  4  1  0        0
  4  5  2  0        0
  4 22  1  0        0
  5  6  1  0        0
  6  7  2  0        0
  6 15  1  0        0
  7  8  1  0        0
  8  9  1  0        0
  9 10  1  0        0
 10 14  1  0        0
 10 11  1  0        0
 10 28  1  0        0
 11 12  1  0        0
 11 29  1  0        0
 11 30  1  0        0
 12 13  1  0        0
 12 31  1  0        0
 12 32  1  0        0
 13 14  1  0        0
 13 33  1  0        0
 13 34  1  0        0
 14 35  1  0        0
 14 36  1  0        0
 15 16  1  0        0
 15 37  1  0        0
 16 21  1  0        0
 16 17  1  0        0
 16 38  1  0        0
 17 18  1  0        0
 17 39  1  0        0
 17 40  1  0        0
 18 19  1  0        0
 18 41  1  0        0
 18 42  1  0        0
 19 20  1  0        0
 19 43  1  0        0
 19 58  1  0        0
 20 21  1  0        0
 20 44  1  0        0
 20 45  1  0        0
 21 46  1  0        0
 21 47  1  0        0
 22 23  1  0        0
 22 50  1  0        0
 23 24  1  0        0
 23 51  1  0        0
 23 52  1  0        0
 24 26  1  0        0
 24 25  1  0        0
 24 53  1  0        0
 25 26  1  0        0
 25 54  1  0        0
 25 55  1  0        0
 26 56  1  0        0
 26 57  1  0        0
 48 58  1  0        0
 49 58  1  0        0
 58 59  1  0        0
M  CHG  1  58   1
M  END
>  <MolfileName> (18)
ZINC03814439

$$$$
ZINC03814440
csCF1202/ 12301312233D

 33 36  0  0  0  0  0  0  0  0999 V2000
   -0.6671   -2.3093   -0.1264 C   0  0  0  0  0  0  0  0  0  0  0  0
    0.6271   -2.6862    0.1960 C   0  0  0  0  0  0  0  0  0  0  0  0
    1.6202   -1.7392    0.3423 C   0  0  0  0  0  0  0  0  0  0  0  0
    1.3308   -0.3895    0.1670 C   0  0  0  0  0  0  0  0  0  0  0  0
    0.0195   -0.0103   -0.1595 C   0  0  0  0  0  0  0  0  0  0  0  0
   -0.9760   -0.9777   -0.3050 C   0  0  0  0  0  0  0  0  0  0  0  0
    0.0131    1.4593   -0.2811 C   0  0  0  0  0  0  0  0  0  0  0  0
   -0.9318    2.1738   -0.5571 O   0  0  0  0  0  0  0  0  0  0  0  0
    1.4070    1.8778   -0.0013 C   0  0  0  0  0  0  0  0  0  0  0  0
    1.8874    3.1717    0.0004 C   0  0  0  0  0  0  0  0  0  0  0  0
    1.1053    4.4213   -0.0884 C   0  0  0  0  0  0  0  0  0  0  0  0
   -0.2580    4.6876   -0.1939 C   0  0  0  0  0  0  0  0  0  0  0  0
   -0.6966    5.9943   -0.2585 C   0  0  0  0  0  0  0  0  0  0  0  0
    0.2157    7.0359   -0.2180 C   0  0  0  0  0  0  0  0  0  0  0  0
    1.5693    6.7830   -0.1140 C   0  0  0  0  0  0  0  0  0  0  0  0
    2.0318    5.4740   -0.0477 C   0  0  0  0  0  0  0  0  0  0  0  0
    3.3164    4.9525    0.0592 N   0  0  0  0  0  0  0  0  0  0  0  0
    3.2983    3.6091    0.0981 C   0  0  0  0  0  0  0  0  0  0  0  0
    4.2685    2.8822    0.1936 O   0  0  0  0  0  0  0  0  0  0  0  0
   -2.4195    6.3385   -0.3919 S   0  0  0  0  0  0  0  0  0  0  0  0
   -2.5319    7.6250   -0.9848 O   0  0  0  0  0  0  0  0  0  0  0  0
   -3.0217    5.1831   -0.9591 O   0  0  0  0  0  0  0  0  0  0  0  0
    2.1338    0.7385    0.2557 N   0  0  0  0  0  0  0  0  0  0  0  0
   -1.4352   -3.0604   -0.2380 H   0  0  0  0  0  0  0  0  0  0  0  0
    0.8608   -3.7316    0.3339 H   0  0  0  0  0  0  0  0  0  0  0  0
    2.6246   -2.0465    0.5937 H   0  0  0  0  0  0  0  0  0  0  0  0
   -1.9846   -0.6842   -0.5560 H   0  0  0  0  0  0  0  0  0  0  0  0
   -0.9685    3.8748   -0.2254 H   0  0  0  0  0  0  0  0  0  0  0  0
   -0.1351    8.0561   -0.2686 H   0  0  0  0  0  0  0  0  0  0  0  0
    2.2701    7.6042   -0.0842 H   0  0  0  0  0  0  0  0  0  0  0  0
    4.1226    5.4899    0.1048 H   0  0  0  0  0  0  0  0  0  0  0  0
    3.0798    0.7255    0.4696 H   0  0  0  0  0  0  0  0  0  0  0  0
   -2.9646    6.4628    1.0237 O   0  5  0  0  0  0  0  0  0  0  0  0
  1  6  2  0        0
  1  2  1  0        0
  1 24  1  0        0
  2  3  2  0        0
  2 25  1  0        0
  3  4  1  0        0
  3 26  1  0        0
  4 23  1  0        0
  4  5  2  0        0
  5  6  1  0        0
  5  7  1  0        0
  6 27  1  0        0
  7  8  2  0        0
  7  9  1  0        0
  9 10  2  0        0
  9 23  1  0        0
 10 18  1  0        0
 10 11  1  0        0
 11 16  2  0        0
 11 12  1  0        0
 12 13  2  0        0
 12 28  1  0        0
 13 14  1  0        0
 13 20  1  0        0
 14 15  2  0        0
 14 29  1  0        0
 15 16  1  0        0
 15 30  1  0        0
 16 17  1  0        0
 17 18  1  0        0
 17 31  1  0        0
 18 19  2  0        0
 20 21  2  0        0
 20 22  2  0        0
 20 33  1  0        0
 23 32  1  0        0
M  CHG  1  33  -1
M  END
>  <MolfileName> (19)
ZINC03814440

$$$$
ZINC03814441
csCF1202/ 12301312233D

 34 36  0  0  0  0  0  0  0  0999 V2000
   -2.7409   -4.2694   -0.0015 C   0  0  0  0  0  0  0  0  0  0  0  0
   -3.2244   -5.5628    0.0000 C   0  0  0  0  0  0  0  0  0  0  0  0
   -4.5881   -5.7931    0.0129 C   0  0  0  0  0  0  0  0  0  0  0  0
   -5.4723   -4.7297    0.0286 C   0  0  0  0  0  0  0  0  0  0  0  0
   -4.9962   -3.4336    0.0320 C   0  0  0  0  0  0  0  0  0  0  0  0
   -3.6264   -3.1983    0.0196 C   0  0  0  0  0  0  0  0  0  0  0  0
   -3.1415   -1.8900    0.0225 N   0  0  0  0  0  0  0  0  0  0  0  0
   -1.8699   -1.6734    0.0110 N   0  0  0  0  0  0  0  0  0  0  0  0
   -1.4131   -0.4410    0.0137 C   0  0  0  0  0  0  0  0  0  0  0  0
    0.0021   -0.0041    0.0020 C   0  0  0  0  0  0  0  0  0  0  0  0
    1.2110   -0.6909   -0.0136 C   0  0  0  0  0  0  0  0  0  0  0  0
    2.3989    0.0137   -0.0216 C   0  0  0  0  0  0  0  0  0  0  0  0
    2.3841    1.3993   -0.0140 C   0  0  0  0  0  0  0  0  0  0  0  0
    1.1891    2.0892    0.0019 C   0  0  0  0  0  0  0  0  0  0  0  0
   -0.0169    1.3966    0.0097 C   0  0  0  0  0  0  0  0  0  0  0  0
   -1.3356    1.8367    0.0303 N   0  0  0  0  0  0  0  0  0  0  0  0
   -2.1972    0.8054    0.0281 C   0  0  0  0  0  0  0  0  0  0  0  0
   -3.4120    0.8872    0.0400 O   0  0  0  0  0  0  0  0  0  0  0  0
    4.0470   -0.9133   -0.0435 Br  0  0  0  0  0  0  0  0  0  0  0  0
   -5.2005   -7.4452    0.0086 S   0  0  0  0  0  0  0  0  0  0  0  0
   -4.1683   -8.2623    0.5438 O   0  0  0  0  0  0  0  0  0  0  0  0
   -6.5037   -7.3968    0.5730 O   0  0  0  0  0  0  0  0  0  0  0  0
   -5.3867   -7.8943   -1.5744 N   0  0  0  0  0  0  0  0  0  0  0  0
   -1.6759   -4.0904   -0.0157 H   0  0  0  0  0  0  0  0  0  0  0  0
   -2.5369   -6.3956   -0.0126 H   0  0  0  0  0  0  0  0  0  0  0  0
   -6.5366   -4.9134    0.0386 H   0  0  0  0  0  0  0  0  0  0  0  0
   -5.6873   -2.6038    0.0439 H   0  0  0  0  0  0  0  0  0  0  0  0
   -3.7606   -1.1433    0.0332 H   0  0  0  0  0  0  0  0  0  0  0  0
    1.2211   -1.7709   -0.0199 H   0  0  0  0  0  0  0  0  0  0  0  0
    3.3165    1.9443   -0.0204 H   0  0  0  0  0  0  0  0  0  0  0  0
    1.1903    3.1692    0.0074 H   0  0  0  0  0  0  0  0  0  0  0  0
   -1.6002    2.7699    0.0394 H   0  0  0  0  0  0  0  0  0  0  0  0
   -5.2867   -8.8248   -1.8296 H   0  0  0  0  0  0  0  0  0  0  0  0
   -5.5957   -7.2269   -2.2465 H   0  0  0  0  0  0  0  0  0  0  0  0
  1  6  2  0        0
  1  2  1  0        0
  1 24  1  0        0
  2  3  2  0        0
  2 25  1  0        0
  3  4  1  0        0
  3 20  1  0        0
  4  5  2  0        0
  4 26  1  0        0
  5  6  1  0        0
  5 27  1  0        0
  6  7  1  0        0
  7  8  1  0        0
  7 28  1  0        0
  8  9  2  0        0
  9 17  1  0        0
  9 10  1  0        0
 10 15  2  0        0
 10 11  1  0        0
 11 12  2  0        0
 11 29  1  0        0
 12 13  1  0        0
 12 19  1  0        0
 13 14  2  0        0
 13 30  1  0        0
 14 15  1  0        0
 14 31  1  0        0
 15 16  1  0        0
 16 17  1  0        0
 16 32  1  0        0
 17 18  2  0        0
 20 21  2  0        0
 20 22  2  0        0
 20 23  1  0        0
 23 33  1  0        0
 23 34  1  0        0
M  END
>  <MolfileName> (20)
ZINC03814441

$$$$
ZINC03814443
csCF1202/ 12301312233D

 38 40  0  0  0  0  0  0  0  0999 V2000
    3.4436    3.4184   -2.4529 C   0  0  0  0  0  0  0  0  0  0  0  0
    4.2953    2.5783   -1.6072 N   0  0  0  0  0  0  0  0  0  0  0  0
    3.8901    2.3187   -0.0226 S   0  0  0  0  0  0  0  0  0  0  0  0
    3.6053    3.5931    0.5378 O   0  0  0  0  0  0  0  0  0  0  0  0
    4.8826    1.4550    0.5141 O   0  0  0  0  0  0  0  0  0  0  0  0
    2.3775    1.4150   -0.0130 C   0  0  0  0  0  0  0  0  0  0  0  0
    1.1706    2.0901    0.0021 C   0  0  0  0  0  0  0  0  0  0  0  0
   -0.0168    1.3850    0.0097 C   0  0  0  0  0  0  0  0  0  0  0  0
    0.0021   -0.0041    0.0020 C   0  0  0  0  0  0  0  0  0  0  0  0
    1.2162   -0.6790   -0.0132 C   0  0  0  0  0  0  0  0  0  0  0  0
    2.3998    0.0323   -0.0207 C   0  0  0  0  0  0  0  0  0  0  0  0
   -1.1976   -0.7208    0.0101 N   0  0  0  0  0  0  0  0  0  0  0  0
   -1.1773   -2.0822    0.0026 C   0  0  0  0  0  0  0  0  0  0  0  0
   -2.3491   -2.7823    0.0105 C   0  0  0  0  0  0  0  0  0  0  0  0
   -2.5199   -4.2541    0.0043 C   0  0  0  0  0  0  0  0  0  0  0  0
   -1.6246   -5.3176   -0.0106 C   0  0  0  0  0  0  0  0  0  0  0  0
   -2.1007   -6.6132   -0.0122 C   0  0  0  0  0  0  0  0  0  0  0  0
   -3.4650   -6.8516    0.0014 C   0  0  0  0  0  0  0  0  0  0  0  0
   -4.3615   -5.8029    0.0162 C   0  0  0  0  0  0  0  0  0  0  0  0
   -3.9003   -4.4906    0.0176 C   0  0  0  0  0  0  0  0  0  0  0  0
   -4.5712   -3.2740    0.0313 N   0  0  0  0  0  0  0  0  0  0  0  0
   -3.7125   -2.2404    0.0334 C   0  0  0  0  0  0  0  0  0  0  0  0
   -4.0134   -1.0598    0.0485 O   0  0  0  0  0  0  0  0  0  0  0  0
    3.3857    4.4206   -2.0283 H   0  0  0  0  0  0  0  0  0  0  0  0
    3.8677    3.4725   -3.4555 H   0  0  0  0  0  0  0  0  0  0  0  0
    2.4439    2.9871   -2.5040 H   0  0  0  0  0  0  0  0  0  0  0  0
    5.0965    2.1741   -1.9754 H   0  0  0  0  0  0  0  0  0  0  0  0
    1.1567    3.1700    0.0080 H   0  0  0  0  0  0  0  0  0  0  0  0
   -0.9590    1.9129    0.0170 H   0  0  0  0  0  0  0  0  0  0  0  0
    1.2344   -1.7589   -0.0188 H   0  0  0  0  0  0  0  0  0  0  0  0
    3.3441   -0.4918   -0.0322 H   0  0  0  0  0  0  0  0  0  0  0  0
   -2.0447   -0.2484    0.0210 H   0  0  0  0  0  0  0  0  0  0  0  0
   -0.2341   -2.6082   -0.0096 H   0  0  0  0  0  0  0  0  0  0  0  0
   -0.5609   -5.1308   -0.0204 H   0  0  0  0  0  0  0  0  0  0  0  0
   -1.4085   -7.4421   -0.0237 H   0  0  0  0  0  0  0  0  0  0  0  0
   -3.8305   -7.8678    0.0000 H   0  0  0  0  0  0  0  0  0  0  0  0
   -5.4231   -6.0013    0.0267 H   0  0  0  0  0  0  0  0  0  0  0  0
   -5.5368   -3.1825    0.0425 H   0  0  0  0  0  0  0  0  0  0  0  0
  1  2  1  0        0
  1 24  1  0        0
  1 25  1  0        0
  1 26  1  0        0
  2  3  1  0        0
  2 27  1  0        0
  3  4  2  0        0
  3  5  2  0        0
  3  6  1  0        0
  6 11  2  0        0
  6  7  1  0        0
  7  8  2  0        0
  7 28  1  0        0
  8  9  1  0        0
  8 29  1  0        0
  9 10  2  0        0
  9 12  1  0        0
 10 11  1  0        0
 10 30  1  0        0
 11 31  1  0        0
 12 13  1  0        0
 12 32  1  0        0
 13 14  2  0        0
 13 33  1  0        0
 14 22  1  0        0
 14 15  1  0        0
 15 20  2  0        0
 15 16  1  0        0
 16 17  2  0        0
 16 34  1  0        0
 17 18  1  0        0
 17 35  1  0        0
 18 19  2  0        0
 18 36  1  0        0
 19 20  1  0        0
 19 37  1  0        0
 20 21  1  0        0
 21 22  1  0        0
 21 38  1  0        0
 22 23  2  0        0
M  END
>  <MolfileName> (21)
ZINC03814443

$$$$
ZINC03814444
csCF1202/ 12301312233D

 42 45  0  0  0  0  0  0  0  0999 V2000
    5.7042   -3.1438   -1.0544 C   0  0  0  0  0  0  0  0  0  0  0  0
    5.6619   -1.8015   -1.6398 N   0  0  0  0  0  0  0  0  0  0  0  0
    4.2213   -0.9929   -1.7539 S   0  0  0  0  0  0  0  0  0  0  0  0
    3.3378   -1.9128   -2.3804 O   0  0  0  0  0  0  0  0  0  0  0  0
    4.5463    0.2405   -2.3803 O   0  0  0  0  0  0  0  0  0  0  0  0
    3.7103   -0.7061   -0.0372 C   0  0  0  0  0  0  0  0  0  0  0  0
    2.3962    0.0314   -0.0207 C   0  0  0  0  0  0  0  0  0  0  0  0
    1.2080   -0.6764   -0.0131 C   0  0  0  0  0  0  0  0  0  0  0  0
    0.0021   -0.0041    0.0020 C   0  0  0  0  0  0  0  0  0  0  0  0
   -0.0168    1.3857    0.0097 C   0  0  0  0  0  0  0  0  0  0  0  0
    1.1794    2.0936    0.0020 C   0  0  0  0  0  0  0  0  0  0  0  0
    2.3815    1.4144   -0.0135 C   0  0  0  0  0  0  0  0  0  0  0  0
   -1.2334    2.0686    0.0191 N   0  0  0  0  0  0  0  0  0  0  0  0
   -1.2490    3.3584    0.0262 N   0  0  0  0  0  0  0  0  0  0  0  0
   -2.3954    4.0018    0.0352 C   0  0  0  0  0  0  0  0  0  0  0  0
   -2.6046    5.4680    0.0502 C   0  0  0  0  0  0  0  0  0  0  0  0
   -3.9917    5.6655    0.0529 C   0  0  0  0  0  0  0  0  0  0  0  0
   -4.4816    6.9713    0.0621 C   0  0  0  0  0  0  0  0  0  0  0  0
   -3.6511    8.0470    0.0627 C   0  0  0  0  0  0  0  0  0  0  0  0
   -2.2456    7.8895    0.0549 C   0  0  0  0  0  0  0  0  0  0  0  0
   -1.7600    6.5638    0.0460 C   0  0  0  0  0  0  0  0  0  0  0  0
   -0.0023    6.8104    0.0378 S   0  0  0  0  0  0  0  0  0  0  0  0
   -0.0142    8.5465    0.0461 C   0  0  0  0  0  0  0  0  0  0  0  0
   -1.2842    8.8374    0.0542 N   0  0  0  0  0  0  0  0  0  0  0  0
   -4.6321    4.4320    0.0492 N   0  0  0  0  0  0  0  0  0  0  0  0
   -3.7481    3.4202    0.0389 C   0  0  0  0  0  0  0  0  0  0  0  0
   -4.0177    2.2328    0.0330 O   0  0  0  0  0  0  0  0  0  0  0  0
    6.7299   -3.5124   -1.0645 H   0  0  0  0  0  0  0  0  0  0  0  0
    5.3426   -3.1036   -0.0269 H   0  0  0  0  0  0  0  0  0  0  0  0
    5.0714   -3.8140   -1.6363 H   0  0  0  0  0  0  0  0  0  0  0  0
    6.4778   -1.3863   -1.9605 H   0  0  0  0  0  0  0  0  0  0  0  0
    4.4676   -0.1106    0.4727 H   0  0  0  0  0  0  0  0  0  0  0  0
    3.5965   -1.6628    0.4727 H   0  0  0  0  0  0  0  0  0  0  0  0
    1.2235   -1.7562   -0.0194 H   0  0  0  0  0  0  0  0  0  0  0  0
   -0.9254   -0.5574    0.0075 H   0  0  0  0  0  0  0  0  0  0  0  0
    1.1686    3.1735    0.0076 H   0  0  0  0  0  0  0  0  0  0  0  0
    3.3113    1.9637   -0.0195 H   0  0  0  0  0  0  0  0  0  0  0  0
   -2.0675    1.5734    0.0204 H   0  0  0  0  0  0  0  0  0  0  0  0
   -5.5496    7.1318    0.0685 H   0  0  0  0  0  0  0  0  0  0  0  0
   -4.0725    9.0414    0.0696 H   0  0  0  0  0  0  0  0  0  0  0  0
    0.8282    9.2225    0.0453 H   0  0  0  0  0  0  0  0  0  0  0  0
   -5.5952    4.3162    0.0541 H   0  0  0  0  0  0  0  0  0  0  0  0
  1  2  1  0        0
  1 28  1  0        0
  1 29  1  0        0
  1 30  1  0        0
  2  3  1  0        0
  2 31  1  0        0
  3  4  2  0        0
  3  5  2  0        0
  3  6  1  0        0
  6  7  1  0        0
  6 32  1  0        0
  6 33  1  0        0
  7 12  2  0        0
  7  8  1  0        0
  8  9  2  0        0
  8 34  1  0        0
  9 10  1  0        0
  9 35  1  0        0
 10 11  2  0        0
 10 13  1  0        0
 11 12  1  0        0
 11 36  1  0        0
 12 37  1  0        0
 13 14  1  0        0
 13 38  1  0        0
 14 15  2  0        0
 15 26  1  0        0
 15 16  1  0        0
 16 21  2  0        0
 16 17  1  0        0
 17 18  2  0        0
 17 25  1  0        0
 18 19  1  0        0
 18 39  1  0        0
 19 20  2  0        0
 19 40  1  0        0
 20 24  1  0        0
 20 21  1  0        0
 21 22  1  0        0
 22 23  1  0        0
 23 24  2  0        0
 23 41  1  0        0
 25 26  1  0        0
 25 42  1  0        0
 26 27  2  0        0
M  END
>  <MolfileName> (22)
ZINC03814444

$$$$
ZINC03814447
csCF1202/ 12301312233D

 41 44  0  0  0  0  0  0  0  0999 V2000
   -2.2981    7.9345    0.0551 C   0  0  0  0  0  0  0  0  0  0  0  0
   -3.6684    8.1357    0.0619 C   0  0  0  0  0  0  0  0  0  0  0  0
   -4.5362    7.0630    0.0602 C   0  0  0  0  0  0  0  0  0  0  0  0
   -4.0396    5.7637    0.0516 C   0  0  0  0  0  0  0  0  0  0  0  0
   -2.6532    5.5649    0.0448 C   0  0  0  0  0  0  0  0  0  0  0  0
   -1.7870    6.6523    0.0466 C   0  0  0  0  0  0  0  0  0  0  0  0
   -2.4425    4.0982    0.0359 C   0  0  0  0  0  0  0  0  0  0  0  0
   -1.2521    3.4303    0.0266 C   0  0  0  0  0  0  0  0  0  0  0  0
   -1.2355    2.0688    0.0191 N   0  0  0  0  0  0  0  0  0  0  0  0
   -0.0168    1.3850    0.0097 C   0  0  0  0  0  0  0  0  0  0  0  0
    1.1786    2.0928    0.0020 C   0  0  0  0  0  0  0  0  0  0  0  0
    2.3811    1.4139   -0.0126 C   0  0  0  0  0  0  0  0  0  0  0  0
    2.3962    0.0311   -0.0202 C   0  0  0  0  0  0  0  0  0  0  0  0
    1.2081   -0.6766   -0.0131 C   0  0  0  0  0  0  0  0  0  0  0  0
    0.0021   -0.0041    0.0020 C   0  0  0  0  0  0  0  0  0  0  0  0
    3.9328   -0.8311   -0.0383 S   0  0  0  0  0  0  0  0  0  0  0  0
    4.9013    0.0535    0.5083 O   0  0  0  0  0  0  0  0  0  0  0  0
    3.6825   -2.1186    0.5083 O   0  0  0  0  0  0  0  0  0  0  0  0
    4.3456   -1.0627   -1.6252 N   0  0  0  0  0  0  0  0  0  0  0  0
    4.6267    0.0271   -2.4344 C   0  0  0  0  0  0  0  0  0  0  0  0
    4.6140    1.3108   -2.1300 N   0  0  0  0  0  0  0  0  0  0  0  0
    4.9146    2.2288   -3.0295 C   0  0  0  0  0  0  0  0  0  0  0  0
    5.2281    1.8256   -4.2838 C   0  0  0  0  0  0  0  0  0  0  0  0
    5.0787    0.0535   -4.1108 S   0  0  0  0  0  0  0  0  0  0  0  0
   -3.7909    3.5195    0.0326 C   0  0  0  0  0  0  0  0  0  0  0  0
   -4.0597    2.3311    0.0216 O   0  0  0  0  0  0  0  0  0  0  0  0
   -4.6773    4.5294    0.0474 N   0  0  0  0  0  0  0  0  0  0  0  0
   -1.6286    8.7819    0.0562 H   0  0  0  0  0  0  0  0  0  0  0  0
   -4.0614    9.1416    0.0688 H   0  0  0  0  0  0  0  0  0  0  0  0
   -5.6028    7.2324    0.0655 H   0  0  0  0  0  0  0  0  0  0  0  0
   -0.7186    6.4945    0.0410 H   0  0  0  0  0  0  0  0  0  0  0  0
   -0.3235    3.9817    0.0252 H   0  0  0  0  0  0  0  0  0  0  0  0
   -2.0695    1.5735    0.0204 H   0  0  0  0  0  0  0  0  0  0  0  0
    1.1675    3.1727    0.0076 H   0  0  0  0  0  0  0  0  0  0  0  0
    3.3108    1.9635   -0.0178 H   0  0  0  0  0  0  0  0  0  0  0  0
    1.2235   -1.7565   -0.0191 H   0  0  0  0  0  0  0  0  0  0  0  0
   -0.9254   -0.5574    0.0075 H   0  0  0  0  0  0  0  0  0  0  0  0
    4.3906   -1.9609   -1.9885 H   0  0  0  0  0  0  0  0  0  0  0  0
    4.9061    3.2777   -2.7723 H   0  0  0  0  0  0  0  0  0  0  0  0
    5.4947    2.4132   -5.1499 H   0  0  0  0  0  0  0  0  0  0  0  0
   -5.6401    4.4115    0.0507 H   0  0  0  0  0  0  0  0  0  0  0  0
  1  6  2  0        0
  1  2  1  0        0
  1 28  1  0        0
  2  3  2  0        0
  2 29  1  0        0
  3  4  1  0        0
  3 30  1  0        0
  4 27  1  0        0
  4  5  2  0        0
  5  6  1  0        0
  5  7  1  0        0
  6 31  1  0        0
  7  8  2  0        0
  7 25  1  0        0
  8  9  1  0        0
  8 32  1  0        0
  9 10  1  0        0
  9 33  1  0        0
 10 15  2  0        0
 10 11  1  0        0
 11 12  2  0        0
 11 34  1  0        0
 12 13  1  0        0
 12 35  1  0        0
 13 14  2  0        0
 13 16  1  0        0
 14 15  1  0        0
 14 36  1  0        0
 15 37  1  0        0
 16 17  2  0        0
 16 18  2  0        0
 16 19  1  0        0
 19 20  1  0        0
 19 38  1  0        0
 20 24  1  0        0
 20 21  2  0        0
 21 22  1  0        0
 22 23  2  0        0
 22 39  1  0        0
 23 24  1  0        0
 23 40  1  0        0
 25 26  2  0        0
 25 27  1  0        0
 27 41  1  0        0
M  END
>  <MolfileName> (23)
ZINC03814447

$$$$
ZINC03814449
csCF1202/ 12301312233D

 39 42  0  0  0  0  0  0  0  0999 V2000
    0.9567    3.5467   -1.7465 C   0  0  0  0  0  0  0  0  0  0  0  0
    0.8093    2.3017   -2.3432 C   0  0  0  0  0  0  0  0  0  0  0  0
   -0.4212    1.6767   -2.3080 C   0  0  0  0  0  0  0  0  0  0  0  0
   -1.4532    2.2473   -1.7162 N   0  0  0  0  0  0  0  0  0  0  0  0
   -1.3528    3.4328   -1.1364 C   0  0  0  0  0  0  0  0  0  0  0  0
   -0.1423    4.1170   -1.1292 C   0  0  0  0  0  0  0  0  0  0  0  0
   -2.4693    3.9983   -0.5228 N   0  0  0  0  0  0  0  0  0  0  0  0
   -3.6684    3.3898   -0.6132 C   0  0  0  0  0  0  0  0  0  0  0  0
   -3.7597    2.3030   -1.1507 O   0  0  0  0  0  0  0  0  0  0  0  0
   -4.7665    3.9860   -0.1079 N   0  0  0  0  0  0  0  0  0  0  0  0
   -5.9894    3.3052   -0.0955 C   0  0  0  0  0  0  0  0  0  0  0  0
   -6.0121    1.9146   -0.1004 C   0  0  0  0  0  0  0  0  0  0  0  0
   -7.2186    1.2403   -0.0872 C   0  0  0  0  0  0  0  0  0  0  0  0
   -8.4083    1.9399   -0.0790 C   0  0  0  0  0  0  0  0  0  0  0  0
   -8.3987    3.3348   -0.0864 C   0  0  0  0  0  0  0  0  0  0  0  0
   -7.1755    4.0141   -0.0727 C   0  0  0  0  0  0  0  0  0  0  0  0
   -7.5112    5.4754   -0.0231 C   0  0  1  0  0  0  0  0  0  0  0  0
   -7.2372    5.9240    0.9318 H   0  0  0  0  0  0  0  0  0  0  0  0
   -6.9156    6.2594   -1.2098 C   0  0  0  0  0  0  0  0  0  0  0  0
   -7.9082    7.4422   -1.3527 C   0  0  0  0  0  0  0  0  0  0  0  0
   -9.2096    6.9531   -0.6805 C   0  0  0  0  0  0  0  0  0  0  0  0
   -8.9697    5.5611   -0.2714 N   0  0  0  0  0  0  0  0  0  0  0  0
   -9.4841    4.3379   -0.1000 C   0  0  0  0  0  0  0  0  0  0  0  0
  -10.6672    4.0889    0.0260 O   0  0  0  0  0  0  0  0  0  0  0  0
    1.9088    4.0563   -1.7599 H   0  0  0  0  0  0  0  0  0  0  0  0
    1.6485    1.8273   -2.8302 H   0  0  0  0  0  0  0  0  0  0  0  0
   -0.5406    0.7080   -2.7705 H   0  0  0  0  0  0  0  0  0  0  0  0
   -0.0621    5.0824   -0.6517 H   0  0  0  0  0  0  0  0  0  0  0  0
   -2.3832    4.8298   -0.0307 H   0  0  0  0  0  0  0  0  0  0  0  0
   -4.7092    4.8868    0.2471 H   0  0  0  0  0  0  0  0  0  0  0  0
   -5.0852    1.3605   -0.1148 H   0  0  0  0  0  0  0  0  0  0  0  0
   -7.2304    0.1603   -0.0831 H   0  0  0  0  0  0  0  0  0  0  0  0
   -9.3475    1.4069   -0.0665 H   0  0  0  0  0  0  0  0  0  0  0  0
   -5.9143    6.6195   -0.9736 H   0  0  0  0  0  0  0  0  0  0  0  0
   -6.9034    5.6478   -2.1120 H   0  0  0  0  0  0  0  0  0  0  0  0
   -7.5242    8.3234   -0.8388 H   0  0  0  0  0  0  0  0  0  0  0  0
   -8.0838    7.6645   -2.4053 H   0  0  0  0  0  0  0  0  0  0  0  0
  -10.0361    6.9971   -1.3898 H   0  0  0  0  0  0  0  0  0  0  0  0
   -9.4326    7.5662    0.1926 H   0  0  0  0  0  0  0  0  0  0  0  0
  1  6  2  0        0
  1  2  1  0        0
  1 25  1  0        0
  2  3  2  0        0
  2 26  1  0        0
  3  4  1  0        0
  3 27  1  0        0
  4  5  2  0        0
  5  6  1  0        0
  5  7  1  0        0
  6 28  1  0        0
  7  8  1  0        0
  7 29  1  0        0
  8  9  2  0        0
  8 10  1  0        0
 10 11  1  0        0
 10 30  1  0        0
 11 16  2  0        0
 11 12  1  0        0
 12 13  2  0        0
 12 31  1  0        0
 13 14  1  0        0
 13 32  1  0        0
 14 15  2  0        0
 14 33  1  0        0
 15 23  1  0        0
 15 16  1  0        0
 16 17  1  0        0
 17 18  1  0        0
 17 22  1  0        0
 17 19  1  0        0
 19 20  1  0        0
 19 34  1  0        0
 19 35  1  0        0
 20 21  1  0        0
 20 36  1  0        0
 20 37  1  0        0
 21 22  1  0        0
 21 38  1  0        0
 21 39  1  0        0
 22 23  1  0        0
 23 24  2  0        0
M  END
>  <MolfileName> (24)
ZINC03814449

$$$$
ZINC03814450
csCF1202/ 12301312233D

 38 40  0  0  0  0  0  0  0  0999 V2000
   -0.6968   -2.5443   -1.0495 C   0  0  0  0  0  0  0  0  0  0  0  0
   -1.7279   -3.4321   -1.2789 C   0  0  0  0  0  0  0  0  0  0  0  0
   -2.8979   -2.9985   -1.8763 C   0  0  0  0  0  0  0  0  0  0  0  0
   -3.0439   -1.6727   -2.2434 C   0  0  0  0  0  0  0  0  0  0  0  0
   -2.0219   -0.7742   -2.0154 C   0  0  0  0  0  0  0  0  0  0  0  0
   -0.8397   -1.2051   -1.4130 C   0  0  0  0  0  0  0  0  0  0  0  0
    0.2605   -0.2468   -1.1661 C   0  0  0  0  0  0  0  0  0  0  0  0
    1.4650   -0.5307   -0.5886 C   0  0  0  0  0  0  0  0  0  0  0  0
    2.2092    0.6553   -0.5455 C   0  0  0  0  0  0  0  0  0  0  0  0
    1.4883    1.6172   -1.0736 N   0  0  0  0  0  0  0  0  0  0  0  0
    0.2576    1.0812   -1.4733 N   0  0  0  0  0  0  0  0  0  0  0  0
   -0.4904    1.5836   -1.9070 H   0  0  0  0  0  0  0  0  0  0  0  0
    3.5026    0.7919   -0.0267 N   0  0  0  0  0  0  0  0  0  0  0  0
    4.1720    2.0135   -0.1320 C   0  0  0  0  0  0  0  0  0  0  0  0
    3.4548    3.2033   -0.1254 C   0  0  0  0  0  0  0  0  0  0  0  0
    4.1203    4.4094   -0.2234 C   0  0  0  0  0  0  0  0  0  0  0  0
    5.4980    4.4332   -0.3406 C   0  0  0  0  0  0  0  0  0  0  0  0
    6.2146    3.2505   -0.3533 C   0  0  0  0  0  0  0  0  0  0  0  0
    5.5561    2.0411   -0.2495 C   0  0  0  0  0  0  0  0  0  0  0  0
    6.3424    5.9740   -0.4734 S   0  0  0  0  0  0  0  0  0  0  0  0
    5.4950    6.9532    0.1117 O   0  0  0  0  0  0  0  0  0  0  0  0
    7.6711    5.7491   -0.0228 O   0  0  0  0  0  0  0  0  0  0  0  0
    6.4447    6.3389   -2.0854 N   0  0  0  0  0  0  0  0  0  0  0  0
   -3.9981   -3.9573   -2.1242 N   0  3  0  0  0  0  0  0  0  0  0  0
   -5.0292   -3.5784   -2.6503 O   0  0  0  0  0  0  0  0  0  0  0  0
   -3.8723   -5.1252   -1.8020 O   0  5  0  0  0  0  0  0  0  0  0  0
    0.2177   -2.8849   -0.5869 H   0  0  0  0  0  0  0  0  0  0  0  0
   -1.6198   -4.4685   -0.9949 H   0  0  0  0  0  0  0  0  0  0  0  0
   -3.9596   -1.3403   -2.7097 H   0  0  0  0  0  0  0  0  0  0  0  0
   -2.1367    0.2605   -2.3031 H   0  0  0  0  0  0  0  0  0  0  0  0
    1.7865   -1.4972   -0.2296 H   0  0  0  0  0  0  0  0  0  0  0  0
    3.9337    0.0383    0.4058 H   0  0  0  0  0  0  0  0  0  0  0  0
    2.3784    3.1853   -0.0387 H   0  0  0  0  0  0  0  0  0  0  0  0
    3.5638    5.3349   -0.2131 H   0  0  0  0  0  0  0  0  0  0  0  0
    7.2906    3.2727   -0.4443 H   0  0  0  0  0  0  0  0  0  0  0  0
    6.1164    1.1178   -0.2591 H   0  0  0  0  0  0  0  0  0  0  0  0
    6.0693    5.7341   -2.7444 H   0  0  0  0  0  0  0  0  0  0  0  0
    6.8800    7.1574   -2.3707 H   0  0  0  0  0  0  0  0  0  0  0  0
  1  6  2  0        0
  1  2  1  0        0
  1 27  1  0        0
  2  3  2  0        0
  2 28  1  0        0
  3  4  1  0        0
  3 24  1  0        0
  4  5  2  0        0
  4 29  1  0        0
  5  6  1  0        0
  5 30  1  0        0
  6  7  1  0        0
  7 11  1  0        0
  7  8  2  0        0
  8  9  1  0        0
  8 31  1  0        0
  9 10  2  0        0
  9 13  1  0        0
 10 11  1  0        0
 11 12  1  0        0
 13 14  1  0        0
 13 32  1  0        0
 14 19  2  0        0
 14 15  1  0        0
 15 16  2  0        0
 15 33  1  0        0
 16 17  1  0        0
 16 34  1  0        0
 17 18  2  0        0
 17 20  1  0        0
 18 19  1  0        0
 18 35  1  0        0
 19 36  1  0        0
 20 21  2  0        0
 20 22  2  0        0
 20 23  1  0        0
 23 37  1  0        0
 23 38  1  0        0
 24 25  2  0        0
 24 26  1  0        0
M  CHG  2  24   1  26  -1
M  END
>  <MolfileName> (25)
ZINC03814450

$$$$
ZINC03814450
csCF1202/ 12301312233D

 38 40  0  0  0  0  0  0  0  0999 V2000
   -0.6968   -2.5443   -1.0495 C   0  0  0  0  0  0  0  0  0  0  0  0
   -1.7279   -3.4321   -1.2789 C   0  0  0  0  0  0  0  0  0  0  0  0
   -2.8979   -2.9985   -1.8763 C   0  0  0  0  0  0  0  0  0  0  0  0
   -3.0439   -1.6727   -2.2434 C   0  0  0  0  0  0  0  0  0  0  0  0
   -2.0219   -0.7742   -2.0154 C   0  0  0  0  0  0  0  0  0  0  0  0
   -0.8397   -1.2051   -1.4130 C   0  0  0  0  0  0  0  0  0  0  0  0
    0.2605   -0.2468   -1.1661 C   0  0  0  0  0  0  0  0  0  0  0  0
    1.4650   -0.5307   -0.5886 C   0  0  0  0  0  0  0  0  0  0  0  0
    2.2092    0.6553   -0.5455 C   0  0  0  0  0  0  0  0  0  0  0  0
    1.4883    1.6172   -1.0736 N   0  0  0  0  0  0  0  0  0  0  0  0
    0.2576    1.0812   -1.4733 N   0  0  0  0  0  0  0  0  0  0  0  0
   -0.4904    1.5836   -1.9070 H   0  0  0  0  0  0  0  0  0  0  0  0
    3.5026    0.7919   -0.0267 N   0  0  0  0  0  0  0  0  0  0  0  0
    4.1720    2.0135   -0.1320 C   0  0  0  0  0  0  0  0  0  0  0  0
    3.4548    3.2033   -0.1254 C   0  0  0  0  0  0  0  0  0  0  0  0
    4.1203    4.4094   -0.2234 C   0  0  0  0  0  0  0  0  0  0  0  0
    5.4980    4.4332   -0.3406 C   0  0  0  0  0  0  0  0  0  0  0  0
    6.2146    3.2505   -0.3533 C   0  0  0  0  0  0  0  0  0  0  0  0
    5.5561    2.0411   -0.2495 C   0  0  0  0  0  0  0  0  0  0  0  0
    6.3424    5.9740   -0.4734 S   0  0  0  0  0  0  0  0  0  0  0  0
    5.4950    6.9532    0.1117 O   0  0  0  0  0  0  0  0  0  0  0  0
    7.6711    5.7491   -0.0228 O   0  0  0  0  0  0  0  0  0  0  0  0
    6.4447    6.3389   -2.0854 N   0  0  0  0  0  0  0  0  0  0  0  0
   -3.9981   -3.9573   -2.1242 N   0  3  0  0  0  0  0  0  0  0  0  0
   -5.0292   -3.5784   -2.6503 O   0  0  0  0  0  0  0  0  0  0  0  0
   -3.8723   -5.1252   -1.8020 O   0  5  0  0  0  0  0  0  0  0  0  0
    0.2177   -2.8849   -0.5869 H   0  0  0  0  0  0  0  0  0  0  0  0
   -1.6198   -4.4685   -0.9949 H   0  0  0  0  0  0  0  0  0  0  0  0
   -3.9596   -1.3403   -2.7097 H   0  0  0  0  0  0  0  0  0  0  0  0
   -2.1367    0.2605   -2.3031 H   0  0  0  0  0  0  0  0  0  0  0  0
    1.7865   -1.4972   -0.2296 H   0  0  0  0  0  0  0  0  0  0  0  0
    3.9337    0.0383    0.4058 H   0  0  0  0  0  0  0  0  0  0  0  0
    2.3784    3.1853   -0.0387 H   0  0  0  0  0  0  0  0  0  0  0  0
    3.5638    5.3349   -0.2131 H   0  0  0  0  0  0  0  0  0  0  0  0
    7.2906    3.2727   -0.4443 H   0  0  0  0  0  0  0  0  0  0  0  0
    6.1164    1.1178   -0.2591 H   0  0  0  0  0  0  0  0  0  0  0  0
    6.0693    5.7341   -2.7444 H   0  0  0  0  0  0  0  0  0  0  0  0
    6.8800    7.1574   -2.3707 H   0  0  0  0  0  0  0  0  0  0  0  0
  1  6  2  0        0
  1  2  1  0        0
  1 27  1  0        0
  2  3  2  0        0
  2 28  1  0        0
  3  4  1  0        0
  3 24  1  0        0
  4  5  2  0        0
  4 29  1  0        0
  5  6  1  0        0
  5 30  1  0        0
  6  7  1  0        0
  7 11  1  0        0
  7  8  2  0        0
  8  9  1  0        0
  8 31  1  0        0
  9 10  2  0        0
  9 13  1  0        0
 10 11  1  0        0
 11 12  1  0        0
 13 14  1  0        0
 13 32  1  0        0
 14 19  2  0        0
 14 15  1  0        0
 15 16  2  0        0
 15 33  1  0        0
 16 17  1  0        0
 16 34  1  0        0
 17 18  2  0        0
 17 20  1  0        0
 18 19  1  0        0
 18 35  1  0        0
 19 36  1  0        0
 20 21  2  0        0
 20 22  2  0        0
 20 23  1  0        0
 23 37  1  0        0
 23 38  1  0        0
 24 25  2  0        0
 24 26  1  0        0
M  CHG  2  24   1  26  -1
M  END
>  <MolfileName> (26)
ZINC03814450

$$$$
ZINC03814451
csCF1202/ 12301312233D

 49 51  0  0  0  0  0  0  0  0999 V2000
   -2.4774    3.7886   -1.0376 C   0  0  0  0  0  0  0  0  0  0  0  0
   -1.3629    3.0175   -0.7971 C   0  0  0  0  0  0  0  0  0  0  0  0
   -1.3196    2.1823    0.3154 C   0  0  0  0  0  0  0  0  0  0  0  0
   -2.4048    2.1191    1.1846 C   0  0  0  0  0  0  0  0  0  0  0  0
   -3.5202    2.8916    0.9525 C   0  0  0  0  0  0  0  0  0  0  0  0
   -3.5666    3.7317   -0.1636 C   0  0  0  0  0  0  0  0  0  0  0  0
   -4.7629    4.5574   -0.4183 C   0  0  0  0  0  0  0  0  0  0  0  0
   -4.8018    5.2881   -1.3893 O   0  0  0  0  0  0  0  0  0  0  0  0
   -5.8124    4.5015    0.4255 N   0  0  0  0  0  0  0  0  0  0  0  0
   -0.1903    1.4038    0.5562 N   0  0  0  0  0  0  0  0  0  0  0  0
    1.0612    1.9022    0.2763 C   0  0  0  0  0  0  0  0  0  0  0  0
    1.1515    3.1494   -0.1603 N   0  0  0  0  0  0  0  0  0  0  0  0
    2.3219    3.7033   -0.4462 C   0  0  0  0  0  0  0  0  0  0  0  0
    3.5337    2.8829   -0.2754 C   0  0  0  0  0  0  0  0  0  0  0  0
    3.3402    1.5072    0.2083 C   0  0  0  0  0  0  0  0  0  0  0  0
    2.1044    1.1034    0.4547 N   0  0  0  0  0  0  0  0  0  0  0  0
    4.3922    0.6813    0.3955 O   0  0  0  0  0  0  0  0  0  0  0  0
    4.1062   -0.6366    0.8683 C   0  0  0  0  0  0  0  0  0  0  0  0
    5.4124   -1.4192    1.0184 C   0  0  0  0  0  0  0  0  0  0  0  0
    6.0519   -1.6128   -0.3580 C   0  0  0  0  0  0  0  0  0  0  0  0
    7.3581   -2.3953   -0.2079 C   0  0  0  0  0  0  0  0  0  0  0  0
    7.0652   -3.7617    0.4151 C   0  0  0  0  0  0  0  0  0  0  0  0
    6.4256   -3.5681    1.7915 C   0  0  0  0  0  0  0  0  0  0  0  0
    5.1195   -2.7855    1.6414 C   0  0  0  0  0  0  0  0  0  0  0  0
    4.7384    3.3609   -0.5438 N   0  0  0  0  0  0  0  0  0  0  0  0
    4.9281    4.5640   -0.5527 O   0  0  0  0  0  0  0  0  0  0  0  0
    2.4014    4.9983   -0.8929 N   0  0  0  0  0  0  0  0  0  0  0  0
   -2.5102    4.4370   -1.9007 H   0  0  0  0  0  0  0  0  0  0  0  0
   -0.5209    3.0610   -1.4721 H   0  0  0  0  0  0  0  0  0  0  0  0
   -2.3699    1.4667    2.0446 H   0  0  0  0  0  0  0  0  0  0  0  0
   -4.3602    2.8454    1.6297 H   0  0  0  0  0  0  0  0  0  0  0  0
   -5.7814    3.9185    1.2002 H   0  0  0  0  0  0  0  0  0  0  0  0
   -6.5988    5.0442    0.2581 H   0  0  0  0  0  0  0  0  0  0  0  0
   -0.2863    0.5088    0.9176 H   0  0  0  0  0  0  0  0  0  0  0  0
    3.6062   -0.5753    1.8349 H   0  0  0  0  0  0  0  0  0  0  0  0
    3.4576   -1.1456    0.1553 H   0  0  0  0  0  0  0  0  0  0  0  0
    6.0958   -0.8653    1.6620 H   0  0  0  0  0  0  0  0  0  0  0  0
    5.3685   -2.1666   -1.0016 H   0  0  0  0  0  0  0  0  0  0  0  0
    6.2606   -0.6393   -0.8018 H   0  0  0  0  0  0  0  0  0  0  0  0
    8.0415   -1.8415    0.4357 H   0  0  0  0  0  0  0  0  0  0  0  0
    7.8137   -2.5333   -1.1884 H   0  0  0  0  0  0  0  0  0  0  0  0
    7.9957   -4.3192    0.5221 H   0  0  0  0  0  0  0  0  0  0  0  0
    6.3817   -4.3155   -0.2285 H   0  0  0  0  0  0  0  0  0  0  0  0
    7.1091   -3.0143    2.4351 H   0  0  0  0  0  0  0  0  0  0  0  0
    6.2170   -4.5415    2.2354 H   0  0  0  0  0  0  0  0  0  0  0  0
    4.6639   -2.6476    2.6220 H   0  0  0  0  0  0  0  0  0  0  0  0
    4.4360   -3.3394    0.9978 H   0  0  0  0  0  0  0  0  0  0  0  0
    3.2410    5.3423   -1.2359 H   0  0  0  0  0  0  0  0  0  0  0  0
    1.6181    5.5697   -0.8656 H   0  0  0  0  0  0  0  0  0  0  0  0
  1  6  2  0        0
  1  2  1  0        0
  1 28  1  0        0
  2  3  2  0        0
  2 29  1  0        0
  3  4  1  0        0
  3 10  1  0        0
  4  5  2  0        0
  4 30  1  0        0
  5  6  1  0        0
  5 31  1  0        0
  6  7  1  0        0
  7  8  2  0        0
  7  9  1  0        0
  9 32  1  0        0
  9 33  1  0        0
 10 11  1  0        0
 10 34  1  0        0
 11 16  2  0        0
 11 12  1  0        0
 12 13  2  0        0
 13 14  1  0        0
 13 27  1  0        0
 14 15  2  0        0
 14 25  1  0        0
 15 16  1  0        0
 15 17  1  0        0
 17 18  1  0        0
 18 19  1  0        0
 18 35  1  0        0
 18 36  1  0        0
 19 24  1  0        0
 19 20  1  0        0
 19 37  1  0        0
 20 21  1  0        0
 20 38  1  0        0
 20 39  1  0        0
 21 22  1  0        0
 21 40  1  0        0
 21 41  1  0        0
 22 23  1  0        0
 22 42  1  0        0
 22 43  1  0        0
 23 24  1  0        0
 23 44  1  0        0
 23 45  1  0        0
 24 46  1  0        0
 24 47  1  0        0
 25 26  2  0        0
 27 48  1  0        0
 27 49  1  0        0
M  END
>  <MolfileName> (27)
ZINC03814451

$$$$
ZINC03814452
csCF1202/ 12301312233D

 38 41  0  0  0  0  0  0  0  0999 V2000
   -3.9892   -1.3286   -0.7081 C   0  0  0  0  0  0  0  0  0  0  0  0
   -4.9953   -0.4308   -0.0352 C   0  0  0  0  0  0  0  0  0  0  0  0
   -4.7677    0.8604    0.3910 C   0  0  0  0  0  0  0  0  0  0  0  0
   -5.9467    1.3036    0.9512 N   0  0  0  0  0  0  0  0  0  0  0  0
   -6.3059    2.4880    1.5202 C   0  0  0  0  0  0  0  0  0  0  0  0
   -7.5571    2.6714    1.9962 C   0  0  0  0  0  0  0  0  0  0  0  0
   -8.5052    1.6411    1.9043 C   0  0  0  0  0  0  0  0  0  0  0  0
   -8.1583    0.4550    1.3324 C   0  0  0  0  0  0  0  0  0  0  0  0
   -6.8503    0.2816    0.8413 C   0  0  0  0  0  0  0  0  0  0  0  0
   -6.2529   -0.7477    0.2494 N   0  0  0  0  0  0  0  0  0  0  0  0
   -3.5090    1.6163    0.2760 C   0  0  0  0  0  0  0  0  0  0  0  0
   -3.5193    3.0188    0.2505 C   0  0  0  0  0  0  0  0  0  0  0  0
   -2.3142    3.6828    0.1411 C   0  0  0  0  0  0  0  0  0  0  0  0
   -1.1910    2.9826    0.0690 N   0  0  0  0  0  0  0  0  0  0  0  0
   -1.2085    1.6577    0.0902 C   0  0  0  0  0  0  0  0  0  0  0  0
   -2.3395    0.9782    0.1939 N   0  0  0  0  0  0  0  0  0  0  0  0
   -0.0111    0.9658    0.0074 N   0  0  0  0  0  0  0  0  0  0  0  0
    1.1821    1.6583   -0.2199 C   0  0  0  0  0  0  0  0  0  0  0  0
    1.2055    2.7358   -1.0961 C   0  0  0  0  0  0  0  0  0  0  0  0
    2.3845    3.4212   -1.3139 C   0  0  0  0  0  0  0  0  0  0  0  0
    3.5434    3.0287   -0.6695 C   0  0  0  0  0  0  0  0  0  0  0  0
    3.5248    1.9529    0.1991 C   0  0  0  0  0  0  0  0  0  0  0  0
    2.3479    1.2667    0.4257 C   0  0  0  0  0  0  0  0  0  0  0  0
   -3.4499   -1.9003    0.0473 H   0  0  0  0  0  0  0  0  0  0  0  0
   -4.5057   -2.0127   -1.3813 H   0  0  0  0  0  0  0  0  0  0  0  0
   -3.2842   -0.7223   -1.2768 H   0  0  0  0  0  0  0  0  0  0  0  0
   -5.5825    3.2863    1.5958 H   0  0  0  0  0  0  0  0  0  0  0  0
   -7.8280    3.6136    2.4491 H   0  0  0  0  0  0  0  0  0  0  0  0
   -9.5050    1.7879    2.2856 H   0  0  0  0  0  0  0  0  0  0  0  0
   -8.8797   -0.3452    1.2565 H   0  0  0  0  0  0  0  0  0  0  0  0
   -4.4482    3.5661    0.3146 H   0  0  0  0  0  0  0  0  0  0  0  0
   -2.2863    4.7622    0.1183 H   0  0  0  0  0  0  0  0  0  0  0  0
   -0.0010    0.0006    0.1030 H   0  0  0  0  0  0  0  0  0  0  0  0
    0.3018    3.0398   -1.6034 H   0  0  0  0  0  0  0  0  0  0  0  0
    2.4024    4.2619   -1.9917 H   0  0  0  0  0  0  0  0  0  0  0  0
    4.4651    3.5634   -0.8453 H   0  0  0  0  0  0  0  0  0  0  0  0
    4.4316    1.6491    0.7010 H   0  0  0  0  0  0  0  0  0  0  0  0
    2.3341    0.4263    1.1039 H   0  0  0  0  0  0  0  0  0  0  0  0
  1  2  1  0        0
  1 24  1  0        0
  1 25  1  0        0
  1 26  1  0        0
  2 10  1  0        0
  2  3  2  0        0
  3  4  1  0        0
  3 11  1  0        0
  4  9  1  0        0
  4  5  1  0        0
  5  6  2  0        0
  5 27  1  0        0
  6  7  1  0        0
  6 28  1  0        0
  7  8  2  0        0
  7 29  1  0        0
  8  9  1  0        0
  8 30  1  0        0
  9 10  2  0        0
 11 16  2  0        0
 11 12  1  0        0
 12 13  2  0        0
 12 31  1  0        0
 13 14  1  0        0
 13 32  1  0        0
 14 15  2  0        0
 15 16  1  0        0
 15 17  1  0        0
 17 18  1  0        0
 17 33  1  0        0
 18 23  2  0        0
 18 19  1  0        0
 19 20  2  0        0
 19 34  1  0        0
 20 21  1  0        0
 20 35  1  0        0
 21 22  2  0        0
 21 36  1  0        0
 22 23  1  0        0
 22 37  1  0        0
 23 38  1  0        0
M  END
>  <MolfileName> (28)
ZINC03814452

$$$$
ZINC03814452
csCF1202/ 12301312233D

 39 42  0  0  0  0  0  0  0  0999 V2000
   -3.9892   -1.3286   -0.7081 C   0  0  0  0  0  0  0  0  0  0  0  0
   -4.9953   -0.4308   -0.0352 C   0  0  0  0  0  0  0  0  0  0  0  0
   -4.7677    0.8604    0.3910 C   0  0  0  0  0  0  0  0  0  0  0  0
   -5.9467    1.3036    0.9512 N   0  0  0  0  0  0  0  0  0  0  0  0
   -6.3059    2.4880    1.5202 C   0  0  0  0  0  0  0  0  0  0  0  0
   -7.5571    2.6714    1.9962 C   0  0  0  0  0  0  0  0  0  0  0  0
   -8.5052    1.6411    1.9043 C   0  0  0  0  0  0  0  0  0  0  0  0
   -8.1583    0.4550    1.3324 C   0  0  0  0  0  0  0  0  0  0  0  0
   -6.8503    0.2816    0.8413 C   0  0  0  0  0  0  0  0  0  0  0  0
   -3.5090    1.6163    0.2760 C   0  0  0  0  0  0  0  0  0  0  0  0
   -3.5193    3.0188    0.2505 C   0  0  0  0  0  0  0  0  0  0  0  0
   -2.3142    3.6828    0.1411 C   0  0  0  0  0  0  0  0  0  0  0  0
   -1.1910    2.9826    0.0690 N   0  0  0  0  0  0  0  0  0  0  0  0
   -1.2085    1.6577    0.0902 C   0  0  0  0  0  0  0  0  0  0  0  0
   -2.3395    0.9782    0.1939 N   0  0  0  0  0  0  0  0  0  0  0  0
   -0.0111    0.9658    0.0074 N   0  0  0  0  0  0  0  0  0  0  0  0
    1.1821    1.6583   -0.2199 C   0  0  0  0  0  0  0  0  0  0  0  0
    1.2055    2.7358   -1.0961 C   0  0  0  0  0  0  0  0  0  0  0  0
    2.3845    3.4212   -1.3139 C   0  0  0  0  0  0  0  0  0  0  0  0
    3.5434    3.0287   -0.6695 C   0  0  0  0  0  0  0  0  0  0  0  0
    3.5248    1.9529    0.1991 C   0  0  0  0  0  0  0  0  0  0  0  0
    2.3479    1.2667    0.4257 C   0  0  0  0  0  0  0  0  0  0  0  0
   -3.4499   -1.9003    0.0473 H   0  0  0  0  0  0  0  0  0  0  0  0
   -4.5057   -2.0127   -1.3813 H   0  0  0  0  0  0  0  0  0  0  0  0
   -3.2842   -0.7223   -1.2768 H   0  0  0  0  0  0  0  0  0  0  0  0
   -5.5825    3.2863    1.5958 H   0  0  0  0  0  0  0  0  0  0  0  0
   -7.8280    3.6136    2.4491 H   0  0  0  0  0  0  0  0  0  0  0  0
   -9.5050    1.7879    2.2856 H   0  0  0  0  0  0  0  0  0  0  0  0
   -8.8797   -0.3452    1.2565 H   0  0  0  0  0  0  0  0  0  0  0  0
   -4.4482    3.5661    0.3146 H   0  0  0  0  0  0  0  0  0  0  0  0
   -2.2863    4.7622    0.1183 H   0  0  0  0  0  0  0  0  0  0  0  0
   -0.0010    0.0006    0.1030 H   0  0  0  0  0  0  0  0  0  0  0  0
    0.3018    3.0398   -1.6034 H   0  0  0  0  0  0  0  0  0  0  0  0
    2.4024    4.2619   -1.9917 H   0  0  0  0  0  0  0  0  0  0  0  0
    4.4651    3.5634   -0.8453 H   0  0  0  0  0  0  0  0  0  0  0  0
    4.4316    1.6491    0.7010 H   0  0  0  0  0  0  0  0  0  0  0  0
    2.3341    0.4263    1.1039 H   0  0  0  0  0  0  0  0  0  0  0  0
   -6.2534   -0.7487    0.2492 N   0  3  0  0  0  0  0  0  0  0  0  0
   -6.6969   -1.6516    0.0433 H   0  0  0  0  0  0  0  0  0  0  0  0
  1  2  1  0        0
  1 23  1  0        0
  1 24  1  0        0
  1 25  1  0        0
  2  3  2  0        0
  2 38  1  0        0
  3  4  1  0        0
  3 10  1  0        0
  4  9  1  0        0
  4  5  1  0        0
  5  6  2  0        0
  5 26  1  0        0
  6  7  1  0        0
  6 27  1  0        0
  7  8  2  0        0
  7 28  1  0        0
  8  9  1  0        0
  8 29  1  0        0
  9 38  2  0        0
 10 15  2  0        0
 10 11  1  0        0
 11 12  2  0        0
 11 30  1  0        0
 12 13  1  0        0
 12 31  1  0        0
 13 14  2  0        0
 14 15  1  0        0
 14 16  1  0        0
 16 17  1  0        0
 16 32  1  0        0
 17 22  2  0        0
 17 18  1  0        0
 18 19  2  0        0
 18 33  1  0        0
 19 20  1  0        0
 19 34  1  0        0
 20 21  2  0        0
 20 35  1  0        0
 21 22  1  0        0
 21 36  1  0        0
 22 37  1  0        0
 38 39  1  0        0
M  CHG  1  38   1
M  END
>  <MolfileName> (29)
ZINC03814452

$$$$
ZINC03814453
csCF1202/ 12301312233D

 42 44  0  0  0  0  0  0  0  0999 V2000
   -0.9061    3.9802   -1.8975 C   0  0  0  0  0  0  0  0  0  0  0  0
   -0.4789    3.1647   -0.7045 C   0  0  0  0  0  0  0  0  0  0  0  0
   -1.3066    3.0704    0.3993 C   0  0  0  0  0  0  0  0  0  0  0  0
   -0.9164    2.3283    1.4989 C   0  0  0  0  0  0  0  0  0  0  0  0
    0.3015    1.6732    1.4954 C   0  0  0  0  0  0  0  0  0  0  0  0
    1.1330    1.7619    0.3841 C   0  0  0  0  0  0  0  0  0  0  0  0
    0.7365    2.5082   -0.7174 C   0  0  0  0  0  0  0  0  0  0  0  0
    2.3660    1.1003    0.3761 N   0  0  0  0  0  0  0  0  0  0  0  0
    2.4115   -0.2791    0.2470 C   0  0  0  0  0  0  0  0  0  0  0  0
    1.2439   -1.0073    0.0068 C   0  0  0  0  0  0  0  0  0  0  0  0
    1.3377   -2.3793   -0.1202 C   0  0  0  0  0  0  0  0  0  0  0  0
    2.5217   -2.9620   -0.0007 N   0  0  0  0  0  0  0  0  0  0  0  0
    3.6122   -2.2469    0.2326 C   0  0  0  0  0  0  0  0  0  0  0  0
    3.5659   -0.9288    0.3555 N   0  0  0  0  0  0  0  0  0  0  0  0
    4.8315   -2.8937    0.3506 N   0  0  0  0  0  0  0  0  0  0  0  0
    4.8852   -4.2908    0.3442 C   0  0  0  0  0  0  0  0  0  0  0  0
    3.8815   -5.0288    0.9584 C   0  0  0  0  0  0  0  0  0  0  0  0
    3.9347   -6.4088    0.9452 C   0  0  0  0  0  0  0  0  0  0  0  0
    4.9918   -7.0557    0.3318 C   0  0  0  0  0  0  0  0  0  0  0  0
    5.9957   -6.3238   -0.2757 C   0  0  0  0  0  0  0  0  0  0  0  0
    5.9454   -4.9437   -0.2715 C   0  0  0  0  0  0  0  0  0  0  0  0
    5.0596   -8.8164    0.3237 S   0  0  0  0  0  0  0  0  0  0  0  0
    3.7240   -9.2749    0.4824 O   0  0  0  0  0  0  0  0  0  0  0  0
    5.8653   -9.1867   -0.7867 O   0  0  0  0  0  0  0  0  0  0  0  0
    5.8841   -9.2809    1.6826 N   0  0  0  0  0  0  0  0  0  0  0  0
    0.6827    0.9478    2.5695 F   0  0  0  0  0  0  0  0  0  0  0  0
   -1.4612    3.3476   -2.5901 H   0  0  0  0  0  0  0  0  0  0  0  0
   -1.5413    4.8021   -1.5672 H   0  0  0  0  0  0  0  0  0  0  0  0
   -0.0246    4.3809   -2.3982 H   0  0  0  0  0  0  0  0  0  0  0  0
   -2.2581    3.5812    0.4043 H   0  0  0  0  0  0  0  0  0  0  0  0
   -1.5630    2.2606    2.3613 H   0  0  0  0  0  0  0  0  0  0  0  0
    1.3798    2.5792   -1.5820 H   0  0  0  0  0  0  0  0  0  0  0  0
    3.1888    1.6069    0.4607 H   0  0  0  0  0  0  0  0  0  0  0  0
    0.2901   -0.5084   -0.0819 H   0  0  0  0  0  0  0  0  0  0  0  0
    0.4547   -2.9715   -0.3105 H   0  0  0  0  0  0  0  0  0  0  0  0
    5.6480   -2.3773    0.4377 H   0  0  0  0  0  0  0  0  0  0  0  0
    3.0582   -4.5241    1.4419 H   0  0  0  0  0  0  0  0  0  0  0  0
    3.1520   -6.9833    1.4182 H   0  0  0  0  0  0  0  0  0  0  0  0
    6.8197   -6.8321   -0.7542 H   0  0  0  0  0  0  0  0  0  0  0  0
    6.7293   -4.3728   -0.7468 H   0  0  0  0  0  0  0  0  0  0  0  0
    6.2213   -8.6112    2.2980 H   0  0  0  0  0  0  0  0  0  0  0  0
    6.0300  -10.2227    1.8632 H   0  0  0  0  0  0  0  0  0  0  0  0
  1  2  1  0        0
  1 27  1  0        0
  1 28  1  0        0
  1 29  1  0        0
  2  7  2  0        0
  2  3  1  0        0
  3  4  2  0        0
  3 30  1  0        0
  4  5  1  0        0
  4 31  1  0        0
  5  6  2  0        0
  5 26  1  0        0
  6  7  1  0        0
  6  8  1  0        0
  7 32  1  0        0
  8  9  1  0        0
  8 33  1  0        0
  9 14  2  0        0
  9 10  1  0        0
 10 11  2  0        0
 10 34  1  0        0
 11 12  1  0        0
 11 35  1  0        0
 12 13  2  0        0
 13 14  1  0        0
 13 15  1  0        0
 15 16  1  0        0
 15 36  1  0        0
 16 21  2  0        0
 16 17  1  0        0
 17 18  2  0        0
 17 37  1  0        0
 18 19  1  0        0
 18 38  1  0        0
 19 20  2  0        0
 19 22  1  0        0
 20 21  1  0        0
 20 39  1  0        0
 21 40  1  0        0
 22 23  2  0        0
 22 24  2  0        0
 22 25  1  0        0
 25 41  1  0        0
 25 42  1  0        0
M  END
>  <MolfileName> (30)
ZINC03814453

$$$$
ZINC03814454
csCF1202/ 12301312233D

 58 61  0  0  0  0  0  0  0  0999 V2000
   -0.7510   -2.2847   -0.8488 C   0  0  0  0  0  0  0  0  0  0  0  0
   -1.4595   -1.9770    0.4452 C   0  0  0  0  0  0  0  0  0  0  0  0
   -0.9934   -1.1489    1.4440 C   0  0  0  0  0  0  0  0  0  0  0  0
   -1.9470   -1.1575    2.4395 N   0  0  0  0  0  0  0  0  0  0  0  0
   -2.0248   -0.5251    3.6435 C   0  0  0  0  0  0  0  0  0  0  0  0
   -3.0969   -0.7031    4.4464 C   0  0  0  0  0  0  0  0  0  0  0  0
   -4.1486   -1.5403    4.0442 C   0  0  0  0  0  0  0  0  0  0  0  0
   -4.0836   -2.1731    2.8402 C   0  0  0  0  0  0  0  0  0  0  0  0
   -2.9590   -1.9762    2.0164 C   0  0  0  0  0  0  0  0  0  0  0  0
   -2.6398   -2.4570    0.8190 N   0  0  0  0  0  0  0  0  0  0  0  0
    0.2778   -0.4053    1.4493 C   0  0  0  0  0  0  0  0  0  0  0  0
    0.4189    0.7602    2.2172 C   0  0  0  0  0  0  0  0  0  0  0  0
    1.6298    1.4223    2.1901 C   0  0  0  0  0  0  0  0  0  0  0  0
    2.6159    0.9423    1.4457 N   0  0  0  0  0  0  0  0  0  0  0  0
    2.4572   -0.1611    0.7289 C   0  0  0  0  0  0  0  0  0  0  0  0
    1.3147   -0.8293    0.7237 N   0  0  0  0  0  0  0  0  0  0  0  0
    3.5147   -0.6274   -0.0344 N   0  0  0  0  0  0  0  0  0  0  0  0
    4.6915    0.1252   -0.1343 C   0  0  0  0  0  0  0  0  0  0  0  0
    4.6319    1.5125   -0.1247 C   0  0  0  0  0  0  0  0  0  0  0  0
    5.7934    2.2538   -0.2170 C   0  0  0  0  0  0  0  0  0  0  0  0
    7.0183    1.6131   -0.3313 C   0  0  0  0  0  0  0  0  0  0  0  0
    7.0782    0.2273   -0.3472 C   0  0  0  0  0  0  0  0  0  0  0  0
    5.9182   -0.5155   -0.2487 C   0  0  0  0  0  0  0  0  0  0  0  0
    8.1611    2.3438   -0.4274 O   0  0  0  0  0  0  0  0  0  0  0  0
    8.0255    3.7662   -0.4045 C   0  0  0  0  0  0  0  0  0  0  0  0
    9.4074    4.4122   -0.5224 C   0  0  2  0  0  0  0  0  0  0  0  0
   10.0577    4.0250    0.2619 H   0  0  0  0  0  0  0  0  0  0  0  0
    9.2757    5.9292   -0.3729 C   0  0  0  0  0  0  0  0  0  0  0  0
   10.4936    8.0111   -0.5854 C   0  0  0  0  0  0  0  0  0  0  0  0
   11.4631    6.1608    0.6391 C   0  0  0  0  0  0  0  0  0  0  0  0
    9.9686    4.1065   -1.8006 O   0  0  0  0  0  0  0  0  0  0  0  0
   -0.1138   -3.1588   -0.7152 H   0  0  0  0  0  0  0  0  0  0  0  0
   -1.4871   -2.4871   -1.6268 H   0  0  0  0  0  0  0  0  0  0  0  0
   -0.1398   -1.4306   -1.1404 H   0  0  0  0  0  0  0  0  0  0  0  0
   -1.2198    0.1209    3.9614 H   0  0  0  0  0  0  0  0  0  0  0  0
   -3.1443   -0.1996    5.4007 H   0  0  0  0  0  0  0  0  0  0  0  0
   -5.0052   -1.6825    4.6864 H   0  0  0  0  0  0  0  0  0  0  0  0
   -4.8870   -2.8201    2.5203 H   0  0  0  0  0  0  0  0  0  0  0  0
   -0.4018    1.1330    2.8121 H   0  0  0  0  0  0  0  0  0  0  0  0
    1.7721    2.3226    2.7693 H   0  0  0  0  0  0  0  0  0  0  0  0
    3.4402   -1.4752   -0.4998 H   0  0  0  0  0  0  0  0  0  0  0  0
    3.6778    2.0115   -0.0406 H   0  0  0  0  0  0  0  0  0  0  0  0
    5.7476    3.3328   -0.2044 H   0  0  0  0  0  0  0  0  0  0  0  0
    8.0323   -0.2708   -0.4362 H   0  0  0  0  0  0  0  0  0  0  0  0
    5.9651   -1.5944   -0.2604 H   0  0  0  0  0  0  0  0  0  0  0  0
    7.4027    4.0853   -1.2402 H   0  0  0  0  0  0  0  0  0  0  0  0
    7.5604    4.0718    0.5327 H   0  0  0  0  0  0  0  0  0  0  0  0
    8.6254    6.3165   -1.1573 H   0  0  0  0  0  0  0  0  0  0  0  0
    8.8476    6.1624    0.6020 H   0  0  0  0  0  0  0  0  0  0  0  0
   10.0009    8.4000    0.3057 H   0  0  0  0  0  0  0  0  0  0  0  0
   11.4901    8.4449   -0.6682 H   0  0  0  0  0  0  0  0  0  0  0  0
    9.9089    8.2728   -1.4673 H   0  0  0  0  0  0  0  0  0  0  0  0
   11.5833    5.0775    0.6473 H   0  0  0  0  0  0  0  0  0  0  0  0
   12.4390    6.6339    0.5303 H   0  0  0  0  0  0  0  0  0  0  0  0
   11.0055    6.4828    1.5745 H   0  0  0  0  0  0  0  0  0  0  0  0
    9.4414    4.4221   -2.5473 H   0  0  0  0  0  0  0  0  0  0  0  0
   10.6147    6.5399   -0.5103 N   0  3  0  0  0  0  0  0  0  0  0  0
   11.0507    6.1966   -1.3742 H   0  0  0  0  0  0  0  0  0  0  0  0
  1  2  1  0        0
  1 32  1  0        0
  1 33  1  0        0
  1 34  1  0        0
  2 10  1  0        0
  2  3  2  0        0
  3  4  1  0        0
  3 11  1  0        0
  4  9  1  0        0
  4  5  1  0        0
  5  6  2  0        0
  5 35  1  0        0
  6  7  1  0        0
  6 36  1  0        0
  7  8  2  0        0
  7 37  1  0        0
  8  9  1  0        0
  8 38  1  0        0
  9 10  2  0        0
 11 16  2  0        0
 11 12  1  0        0
 12 13  2  0        0
 12 39  1  0        0
 13 14  1  0        0
 13 40  1  0        0
 14 15  2  0        0
 15 16  1  0        0
 15 17  1  0        0
 17 18  1  0        0
 17 41  1  0        0
 18 23  2  0        0
 18 19  1  0        0
 19 20  2  0        0
 19 42  1  0        0
 20 21  1  0        0
 20 43  1  0        0
 21 22  2  0        0
 21 24  1  0        0
 22 23  1  0        0
 22 44  1  0        0
 23 45  1  0        0
 24 25  1  0        0
 25 26  1  0        0
 25 46  1  0        0
 25 47  1  0        0
 26 27  1  0        0
 26 28  1  0        0
 26 31  1  0        0
 28 48  1  0        0
 28 49  1  0        0
 28 57  1  0        0
 29 50  1  0        0
 29 51  1  0        0
 29 52  1  0        0
 29 57  1  0        0
 30 53  1  0        0
 30 54  1  0        0
 30 55  1  0        0
 30 57  1  0        0
 31 56  1  0        0
 57 58  1  0        0
M  CHG  1  57   1
M  END
>  <MolfileName> (31)
ZINC03814454

$$$$
ZINC03814454
csCF1202/ 12301312233D

 59 62  0  0  0  0  0  0  0  0999 V2000
   -0.7510   -2.2847   -0.8488 C   0  0  0  0  0  0  0  0  0  0  0  0
   -1.4595   -1.9770    0.4452 C   0  0  0  0  0  0  0  0  0  0  0  0
   -0.9934   -1.1489    1.4440 C   0  0  0  0  0  0  0  0  0  0  0  0
   -1.9470   -1.1575    2.4395 N   0  0  0  0  0  0  0  0  0  0  0  0
   -2.0248   -0.5251    3.6435 C   0  0  0  0  0  0  0  0  0  0  0  0
   -3.0969   -0.7031    4.4464 C   0  0  0  0  0  0  0  0  0  0  0  0
   -4.1486   -1.5403    4.0442 C   0  0  0  0  0  0  0  0  0  0  0  0
   -4.0836   -2.1731    2.8402 C   0  0  0  0  0  0  0  0  0  0  0  0
   -2.9590   -1.9762    2.0164 C   0  0  0  0  0  0  0  0  0  0  0  0
    0.2778   -0.4053    1.4493 C   0  0  0  0  0  0  0  0  0  0  0  0
    0.4189    0.7602    2.2172 C   0  0  0  0  0  0  0  0  0  0  0  0
    1.6298    1.4223    2.1901 C   0  0  0  0  0  0  0  0  0  0  0  0
    2.6159    0.9423    1.4457 N   0  0  0  0  0  0  0  0  0  0  0  0
    2.4572   -0.1611    0.7289 C   0  0  0  0  0  0  0  0  0  0  0  0
    1.3147   -0.8293    0.7237 N   0  0  0  0  0  0  0  0  0  0  0  0
    3.5147   -0.6274   -0.0344 N   0  0  0  0  0  0  0  0  0  0  0  0
    4.6915    0.1252   -0.1343 C   0  0  0  0  0  0  0  0  0  0  0  0
    4.6319    1.5125   -0.1247 C   0  0  0  0  0  0  0  0  0  0  0  0
    5.7934    2.2538   -0.2170 C   0  0  0  0  0  0  0  0  0  0  0  0
    7.0183    1.6131   -0.3313 C   0  0  0  0  0  0  0  0  0  0  0  0
    7.0782    0.2273   -0.3472 C   0  0  0  0  0  0  0  0  0  0  0  0
    5.9182   -0.5155   -0.2487 C   0  0  0  0  0  0  0  0  0  0  0  0
    8.1611    2.3438   -0.4274 O   0  0  0  0  0  0  0  0  0  0  0  0
    8.0255    3.7662   -0.4045 C   0  0  0  0  0  0  0  0  0  0  0  0
    9.4074    4.4122   -0.5224 C   0  0  2  0  0  0  0  0  0  0  0  0
   10.0577    4.0250    0.2619 H   0  0  0  0  0  0  0  0  0  0  0  0
    9.2757    5.9292   -0.3729 C   0  0  0  0  0  0  0  0  0  0  0  0
   10.4936    8.0111   -0.5854 C   0  0  0  0  0  0  0  0  0  0  0  0
   11.4631    6.1608    0.6391 C   0  0  0  0  0  0  0  0  0  0  0  0
    9.9686    4.1065   -1.8006 O   0  0  0  0  0  0  0  0  0  0  0  0
   -0.1138   -3.1588   -0.7152 H   0  0  0  0  0  0  0  0  0  0  0  0
   -1.4871   -2.4871   -1.6268 H   0  0  0  0  0  0  0  0  0  0  0  0
   -0.1398   -1.4306   -1.1404 H   0  0  0  0  0  0  0  0  0  0  0  0
   -1.2198    0.1209    3.9614 H   0  0  0  0  0  0  0  0  0  0  0  0
   -3.1443   -0.1996    5.4007 H   0  0  0  0  0  0  0  0  0  0  0  0
   -5.0052   -1.6825    4.6864 H   0  0  0  0  0  0  0  0  0  0  0  0
   -4.8870   -2.8201    2.5203 H   0  0  0  0  0  0  0  0  0  0  0  0
   -0.4018    1.1330    2.8121 H   0  0  0  0  0  0  0  0  0  0  0  0
    1.7721    2.3226    2.7693 H   0  0  0  0  0  0  0  0  0  0  0  0
    3.4402   -1.4752   -0.4998 H   0  0  0  0  0  0  0  0  0  0  0  0
    3.6778    2.0115   -0.0406 H   0  0  0  0  0  0  0  0  0  0  0  0
    5.7476    3.3328   -0.2044 H   0  0  0  0  0  0  0  0  0  0  0  0
    8.0323   -0.2708   -0.4362 H   0  0  0  0  0  0  0  0  0  0  0  0
    5.9651   -1.5944   -0.2604 H   0  0  0  0  0  0  0  0  0  0  0  0
    7.4027    4.0853   -1.2402 H   0  0  0  0  0  0  0  0  0  0  0  0
    7.5604    4.0718    0.5327 H   0  0  0  0  0  0  0  0  0  0  0  0
    8.6254    6.3165   -1.1573 H   0  0  0  0  0  0  0  0  0  0  0  0
    8.8476    6.1624    0.6020 H   0  0  0  0  0  0  0  0  0  0  0  0
   10.0009    8.4000    0.3057 H   0  0  0  0  0  0  0  0  0  0  0  0
   11.4901    8.4449   -0.6682 H   0  0  0  0  0  0  0  0  0  0  0  0
    9.9089    8.2728   -1.4673 H   0  0  0  0  0  0  0  0  0  0  0  0
   11.5833    5.0775    0.6473 H   0  0  0  0  0  0  0  0  0  0  0  0
   12.4390    6.6339    0.5303 H   0  0  0  0  0  0  0  0  0  0  0  0
   11.0055    6.4828    1.5745 H   0  0  0  0  0  0  0  0  0  0  0  0
    9.4414    4.4221   -2.5473 H   0  0  0  0  0  0  0  0  0  0  0  0
   10.6147    6.5399   -0.5103 N   0  3  0  0  0  0  0  0  0  0  0  0
   11.0507    6.1966   -1.3742 H   0  0  0  0  0  0  0  0  0  0  0  0
   -2.6404   -2.4577    0.8184 N   0  3  0  0  0  0  0  0  0  0  0  0
   -3.2186   -3.1022    0.2665 H   0  0  0  0  0  0  0  0  0  0  0  0
  1  2  1  0        0
  1 31  1  0        0
  1 32  1  0        0
  1 33  1  0        0
  2  3  2  0        0
  2 58  1  0        0
  3  4  1  0        0
  3 10  1  0        0
  4  9  1  0        0
  4  5  1  0        0
  5  6  2  0        0
  5 34  1  0        0
  6  7  1  0        0
  6 35  1  0        0
  7  8  2  0        0
  7 36  1  0        0
  8  9  1  0        0
  8 37  1  0        0
  9 58  2  0        0
 10 15  2  0        0
 10 11  1  0        0
 11 12  2  0        0
 11 38  1  0        0
 12 13  1  0        0
 12 39  1  0        0
 13 14  2  0        0
 14 15  1  0        0
 14 16  1  0        0
 16 17  1  0        0
 16 40  1  0        0
 17 22  2  0        0
 17 18  1  0        0
 18 19  2  0        0
 18 41  1  0        0
 19 20  1  0        0
 19 42  1  0        0
 20 21  2  0        0
 20 23  1  0        0
 21 22  1  0        0
 21 43  1  0        0
 22 44  1  0        0
 23 24  1  0        0
 24 25  1  0        0
 24 45  1  0        0
 24 46  1  0        0
 25 26  1  0        0
 25 27  1  0        0
 25 30  1  0        0
 27 47  1  0        0
 27 48  1  0        0
 27 56  1  0        0
 28 49  1  0        0
 28 50  1  0        0
 28 51  1  0        0
 28 56  1  0        0
 29 52  1  0        0
 29 53  1  0        0
 29 54  1  0        0
 29 56  1  0        0
 30 55  1  0        0
 56 57  1  0        0
 58 59  1  0        0
M  CHG  2  56   1  58   1
M  END
>  <MolfileName> (32)
ZINC03814454

$$$$
ZINC03814455
csCF1202/ 12301312233D

 37 38  0  0  0  0  0  0  0  0999 V2000
    3.5788    7.3023   -1.8455 C   0  0  0  0  0  0  0  0  0  0  0  0
    2.1100    7.0064   -1.5355 C   0  0  0  0  0  0  0  0  0  0  0  0
    2.0178    5.7819   -0.6619 C   0  0  0  0  0  0  0  0  0  0  0  0
    2.0292    5.7571    0.6812 C   0  0  0  0  0  0  0  0  0  0  0  0
    1.9220    4.4733    1.0666 N   0  0  0  0  0  0  0  0  0  0  0  0
    1.8554    3.7224    0.0043 C   0  0  0  0  0  0  0  0  0  0  0  0
    1.9089    4.5059   -1.0811 O   0  0  0  0  0  0  0  0  0  0  0  0
    1.7321    2.2205   -0.0026 C   0  0  0  0  0  0  0  0  0  0  0  0
   -0.0218    1.7577    0.0117 S   0  0  0  0  0  0  0  0  0  0  0  0
    0.0021   -0.0041    0.0020 C   0  0  0  0  0  0  0  0  0  0  0  0
   -1.0344   -0.8883    0.0128 C   0  0  0  0  0  0  0  0  0  0  0  0
   -0.7858   -2.1846   -0.0017 N   0  0  0  0  0  0  0  0  0  0  0  0
    0.4509   -2.6461   -0.0156 C   0  0  0  0  0  0  0  0  0  0  0  0
    1.3936   -1.1271   -0.0167 S   0  0  0  0  0  0  0  0  0  0  0  0
    0.9008   -3.9635   -0.0261 N   0  0  0  0  0  0  0  0  0  0  0  0
    0.0140   -4.9784   -0.0231 C   0  0  0  0  0  0  0  0  0  0  0  0
   -1.1760   -4.7440   -0.0112 O   0  0  0  0  0  0  0  0  0  0  0  0
    0.5010   -6.4045   -0.0345 C   0  0  0  0  0  0  0  0  0  0  0  0
    1.3596   -6.6601    1.2058 C   0  0  0  0  0  0  0  0  0  0  0  0
   -0.6992   -7.3534   -0.0282 C   0  0  0  0  0  0  0  0  0  0  0  0
    4.1182    7.4784   -0.9149 H   0  0  0  0  0  0  0  0  0  0  0  0
    4.0190    6.4512   -2.3651 H   0  0  0  0  0  0  0  0  0  0  0  0
    3.6455    8.1879   -2.4774 H   0  0  0  0  0  0  0  0  0  0  0  0
    1.5706    6.8302   -2.4661 H   0  0  0  0  0  0  0  0  0  0  0  0
    1.6698    7.8574   -1.0158 H   0  0  0  0  0  0  0  0  0  0  0  0
    2.1060    6.6142    1.3338 H   0  0  0  0  0  0  0  0  0  0  0  0
    2.2230    1.8116    0.8806 H   0  0  0  0  0  0  0  0  0  0  0  0
    2.2060    1.8211   -0.8993 H   0  0  0  0  0  0  0  0  0  0  0  0
   -2.0534   -0.5307    0.0299 H   0  0  0  0  0  0  0  0  0  0  0  0
    1.8524   -4.1509   -0.0357 H   0  0  0  0  0  0  0  0  0  0  0  0
    1.0966   -6.5779   -0.9307 H   0  0  0  0  0  0  0  0  0  0  0  0
    1.7119   -7.6916    1.1976 H   0  0  0  0  0  0  0  0  0  0  0  0
    2.2147   -5.9842    1.2014 H   0  0  0  0  0  0  0  0  0  0  0  0
    0.7640   -6.4867    2.1021 H   0  0  0  0  0  0  0  0  0  0  0  0
   -1.3109   -7.1713   -0.9118 H   0  0  0  0  0  0  0  0  0  0  0  0
   -0.3470   -8.3849   -0.0365 H   0  0  0  0  0  0  0  0  0  0  0  0
   -1.2948   -7.1800    0.8680 H   0  0  0  0  0  0  0  0  0  0  0  0
  1  2  1  0        0
  1 21  1  0        0
  1 22  1  0        0
  1 23  1  0        0
  2  3  1  0        0
  2 24  1  0        0
  2 25  1  0        0
  3  7  1  0        0
  3  4  2  0        0
  4  5  1  0        0
  4 26  1  0        0
  5  6  2  0        0
  6  7  1  0        0
  6  8  1  0        0
  8  9  1  0        0
  8 27  1  0        0
  8 28  1  0        0
  9 10  1  0        0
 10 14  1  0        0
 10 11  2  0        0
 11 12  1  0        0
 11 29  1  0        0
 12 13  2  0        0
 13 14  1  0        0
 13 15  1  0        0
 15 16  1  0        0
 15 30  1  0        0
 16 17  2  0        0
 16 18  1  0        0
 18 19  1  0        0
 18 20  1  0        0
 18 31  1  0        0
 19 32  1  0        0
 19 33  1  0        0
 19 34  1  0        0
 20 35  1  0        0
 20 36  1  0        0
 20 37  1  0        0
M  END
>  <MolfileName> (33)
ZINC03814455

$$$$
ZINC03814457
csCF1202/ 12301312233D

 30 31  0  0  0  0  0  0  0  0999 V2000
    8.4203   -0.7397    0.5289 C   0  0  0  0  0  0  0  0  0  0  0  0
    7.3752    0.2060   -0.0662 C   0  0  0  0  0  0  0  0  0  0  0  0
    7.7622    0.5533   -1.5052 C   0  0  0  0  0  0  0  0  0  0  0  0
    6.0264   -0.4661   -0.0570 C   0  0  0  0  0  0  0  0  0  0  0  0
    5.9523   -1.6714   -0.0624 O   0  0  0  0  0  0  0  0  0  0  0  0
    4.7700    0.3660   -0.0411 C   0  0  0  0  0  0  0  0  0  0  0  0
    3.6290   -0.4943   -0.0348 O   0  0  0  0  0  0  0  0  0  0  0  0
    2.4114    0.0992   -0.0204 C   0  0  0  0  0  0  0  0  0  0  0  0
    1.2385   -0.6718   -0.0134 C   0  0  0  0  0  0  0  0  0  0  0  0
    0.0021   -0.0041    0.0020 C   0  0  0  0  0  0  0  0  0  0  0  0
   -0.9575   -0.9845    0.0063 N   0  0  0  0  0  0  0  0  0  0  0  0
   -1.9475   -0.8435    0.0166 H   0  0  0  0  0  0  0  0  0  0  0  0
   -0.3135   -2.1872   -0.0060 C   0  0  0  0  0  0  0  0  0  0  0  0
    0.9740   -2.0018   -0.0176 N   0  0  0  0  0  0  0  0  0  0  0  0
   -0.0159    1.3246    0.0093 N   0  0  0  0  0  0  0  0  0  0  0  0
    1.1142    2.0122    0.0022 C   0  0  0  0  0  0  0  0  0  0  0  0
    2.3026    1.4210   -0.0123 N   0  0  0  0  0  0  0  0  0  0  0  0
    1.0555    3.3961    0.0097 N   0  0  0  0  0  0  0  0  0  0  0  0
    8.4650   -1.6522   -0.0656 H   0  0  0  0  0  0  0  0  0  0  0  0
    9.3959   -0.2536    0.5222 H   0  0  0  0  0  0  0  0  0  0  0  0
    8.1446   -0.9871    1.5540 H   0  0  0  0  0  0  0  0  0  0  0  0
    7.3342    1.0431    0.4792 H   0  0  0  0  0  0  0  0  0  0  0  0
    8.7378    1.0394   -1.5119 H   0  0  0  0  0  0  0  0  0  0  0  0
    7.8069   -0.3593   -2.0997 H   0  0  0  0  0  0  0  0  0  0  0  0
    7.0176    1.2270   -1.9292 H   0  0  0  0  0  0  0  0  0  0  0  0
    4.7448    0.9472   -0.8545 H   0  0  0  0  0  0  0  0  0  0  0  0
    4.7591    0.9905    0.8522 H   0  0  0  0  0  0  0  0  0  0  0  0
   -0.8008   -3.1510   -0.0065 H   0  0  0  0  0  0  0  0  0  0  0  0
    0.1956    3.8450    0.0200 H   0  0  0  0  0  0  0  0  0  0  0  0
    1.8741    3.9164    0.0047 H   0  0  0  0  0  0  0  0  0  0  0  0
  1  2  1  0        0
  1 19  1  0        0
  1 20  1  0        0
  1 21  1  0        0
  2  3  1  0        0
  2  4  1  0        0
  2 22  1  0        0
  3 23  1  0        0
  3 24  1  0        0
  3 25  1  0        0
  4  5  2  0        0
  4  6  1  0        0
  6  7  1  0        0
  6 26  1  0        0
  6 27  1  0        0
  7  8  1  0        0
  8 17  2  0        0
  8  9  1  0        0
  9 14  1  0        0
  9 10  2  0        0
 10 11  1  0        0
 10 15  1  0        0
 11 12  1  0        0
 11 13  1  0        0
 13 14  2  0        0
 13 28  1  0        0
 15 16  2  0        0
 16 17  1  0        0
 16 18  1  0        0
 18 29  1  0        0
 18 30  1  0        0
M  END
>  <MolfileName> (34)
ZINC03814457

$$$$
ZINC03814457
csCF1202/ 12301312233D

 30 31  0  0  0  0  0  0  0  0999 V2000
    8.4203   -0.7397    0.5289 C   0  0  0  0  0  0  0  0  0  0  0  0
    7.3752    0.2060   -0.0662 C   0  0  0  0  0  0  0  0  0  0  0  0
    7.7622    0.5533   -1.5052 C   0  0  0  0  0  0  0  0  0  0  0  0
    6.0264   -0.4661   -0.0570 C   0  0  0  0  0  0  0  0  0  0  0  0
    5.9523   -1.6714   -0.0624 O   0  0  0  0  0  0  0  0  0  0  0  0
    4.7700    0.3660   -0.0411 C   0  0  0  0  0  0  0  0  0  0  0  0
    3.6290   -0.4943   -0.0348 O   0  0  0  0  0  0  0  0  0  0  0  0
    2.4114    0.0992   -0.0204 C   0  0  0  0  0  0  0  0  0  0  0  0
    1.2385   -0.6718   -0.0134 C   0  0  0  0  0  0  0  0  0  0  0  0
    0.0021   -0.0041    0.0020 C   0  0  0  0  0  0  0  0  0  0  0  0
   -0.9575   -0.9845    0.0063 N   0  0  0  0  0  0  0  0  0  0  0  0
   -1.9475   -0.8435    0.0166 H   0  0  0  0  0  0  0  0  0  0  0  0
   -0.3135   -2.1872   -0.0060 C   0  0  0  0  0  0  0  0  0  0  0  0
    0.9740   -2.0018   -0.0176 N   0  0  0  0  0  0  0  0  0  0  0  0
   -0.0159    1.3246    0.0093 N   0  0  0  0  0  0  0  0  0  0  0  0
    1.1142    2.0122    0.0022 C   0  0  0  0  0  0  0  0  0  0  0  0
    2.3026    1.4210   -0.0123 N   0  0  0  0  0  0  0  0  0  0  0  0
    1.0555    3.3961    0.0097 N   0  0  0  0  0  0  0  0  0  0  0  0
    8.4650   -1.6522   -0.0656 H   0  0  0  0  0  0  0  0  0  0  0  0
    9.3959   -0.2536    0.5222 H   0  0  0  0  0  0  0  0  0  0  0  0
    8.1446   -0.9871    1.5540 H   0  0  0  0  0  0  0  0  0  0  0  0
    7.3342    1.0431    0.4792 H   0  0  0  0  0  0  0  0  0  0  0  0
    8.7378    1.0394   -1.5119 H   0  0  0  0  0  0  0  0  0  0  0  0
    7.8069   -0.3593   -2.0997 H   0  0  0  0  0  0  0  0  0  0  0  0
    7.0176    1.2270   -1.9292 H   0  0  0  0  0  0  0  0  0  0  0  0
    4.7448    0.9472   -0.8545 H   0  0  0  0  0  0  0  0  0  0  0  0
    4.7591    0.9905    0.8522 H   0  0  0  0  0  0  0  0  0  0  0  0
   -0.8008   -3.1510   -0.0065 H   0  0  0  0  0  0  0  0  0  0  0  0
    0.1956    3.8450    0.0200 H   0  0  0  0  0  0  0  0  0  0  0  0
    1.8741    3.9164    0.0047 H   0  0  0  0  0  0  0  0  0  0  0  0
  1  2  1  0        0
  1 19  1  0        0
  1 20  1  0        0
  1 21  1  0        0
  2  3  1  0        0
  2  4  1  0        0
  2 22  1  0        0
  3 23  1  0        0
  3 24  1  0        0
  3 25  1  0        0
  4  5  2  0        0
  4  6  1  0        0
  6  7  1  0        0
  6 26  1  0        0
  6 27  1  0        0
  7  8  1  0        0
  8 17  2  0        0
  8  9  1  0        0
  9 14  1  0        0
  9 10  2  0        0
 10 11  1  0        0
 10 15  1  0        0
 11 12  1  0        0
 11 13  1  0        0
 13 14  2  0        0
 13 28  1  0        0
 15 16  2  0        0
 16 17  1  0        0
 16 18  1  0        0
 18 29  1  0        0
 18 30  1  0        0
M  END
>  <MolfileName> (35)
ZINC03814457

$$$$
ZINC03814458
csCF1202/ 12301312233D

 33 35  0  0  0  0  0  0  0  0999 V2000
   -2.5723    1.9494   -7.5493 C   0  0  0  0  0  0  0  0  0  0  0  0
   -1.6408    1.1789   -8.1818 N   0  0  0  0  0  0  0  0  0  0  0  0
   -1.5927    0.9953   -9.1636 H   0  0  0  0  0  0  0  0  0  0  0  0
   -0.7822    0.7022   -7.2238 C   0  0  0  0  0  0  0  0  0  0  0  0
   -1.2439    1.2154   -5.9993 C   0  0  0  0  0  0  0  0  0  0  0  0
   -2.3362    1.9722   -6.2703 N   0  0  0  0  0  0  0  0  0  0  0  0
   -0.5374    0.8884   -4.8318 C   0  0  0  0  0  0  0  0  0  0  0  0
    0.5268    0.1028   -4.9324 N   0  0  0  0  0  0  0  0  0  0  0  0
    0.9261   -0.3652   -6.1082 C   0  0  0  0  0  0  0  0  0  0  0  0
    0.2932   -0.0778   -7.2341 N   0  0  0  0  0  0  0  0  0  0  0  0
    2.0438   -1.1819   -6.1587 N   0  0  0  0  0  0  0  0  0  0  0  0
   -0.9371    1.3604   -3.6266 O   0  0  0  0  0  0  0  0  0  0  0  0
   -0.1636    0.9730   -2.4892 C   0  0  0  0  0  0  0  0  0  0  0  0
   -0.7630    1.5981   -1.2279 C   0  0  1  0  0  0  0  0  0  0  0  0
   -1.8174    1.3322   -1.1528 H   0  0  0  0  0  0  0  0  0  0  0  0
   -0.0127    1.0858    0.0080 C   0  0  0  0  0  0  0  0  0  0  0  0
   -0.7374    1.5835    1.2605 C   0  0  0  0  0  0  0  0  0  0  0  0
   -1.0031    3.0575    1.1514 C   0  0  0  0  0  0  0  0  0  0  0  0
   -0.9520    3.7249    0.0435 C   0  0  0  0  0  0  0  0  0  0  0  0
   -0.6147    3.1200   -1.2878 C   0  0  0  0  0  0  0  0  0  0  0  0
   -3.3855    2.4649   -8.0385 H   0  0  0  0  0  0  0  0  0  0  0  0
    2.5203   -1.4028   -5.3432 H   0  0  0  0  0  0  0  0  0  0  0  0
    2.3500   -1.5330   -7.0095 H   0  0  0  0  0  0  0  0  0  0  0  0
    0.8629    1.3181   -2.6132 H   0  0  0  0  0  0  0  0  0  0  0  0
   -0.1731   -0.1130   -2.3962 H   0  0  0  0  0  0  0  0  0  0  0  0
    0.0021   -0.0041    0.0020 H   0  0  0  0  0  0  0  0  0  0  0  0
    1.0088    1.4661    0.0003 H   0  0  0  0  0  0  0  0  0  0  0  0
   -1.6851    1.0550    1.3636 H   0  0  0  0  0  0  0  0  0  0  0  0
   -0.1198    1.3880    2.1370 H   0  0  0  0  0  0  0  0  0  0  0  0
   -1.2485    3.5948    2.0555 H   0  0  0  0  0  0  0  0  0  0  0  0
   -1.1657    4.7830    0.0794 H   0  0  0  0  0  0  0  0  0  0  0  0
    0.4127    3.3729   -1.5497 H   0  0  0  0  0  0  0  0  0  0  0  0
   -1.2894    3.5192   -2.0452 H   0  0  0  0  0  0  0  0  0  0  0  0
  1  6  2  0        0
  1  2  1  0        0
  1 21  1  0        0
  2  3  1  0        0
  2  4  1  0        0
  4 10  2  0        0
  4  5  1  0        0
  5  6  1  0        0
  5  7  2  0        0
  7  8  1  0        0
  7 12  1  0        0
  8  9  2  0        0
  9 10  1  0        0
  9 11  1  0        0
 11 22  1  0        0
 11 23  1  0        0
 12 13  1  0        0
 13 14  1  0        0
 13 24  1  0        0
 13 25  1  0        0
 14 15  1  0        0
 14 20  1  0        0
 14 16  1  0        0
 16 17  1  0        0
 16 26  1  0        0
 16 27  1  0        0
 17 18  1  0        0
 17 28  1  0        0
 17 29  1  0        0
 18 19  2  0        0
 18 30  1  0        0
 19 20  1  0        0
 19 31  1  0        0
 20 32  1  0        0
 20 33  1  0        0
M  END
>  <MolfileName> (36)
ZINC03814458

$$$$
ZINC03814458
csCF1202/ 12301312233D

 33 35  0  0  0  0  0  0  0  0999 V2000
   -2.5723    1.9494   -7.5493 C   0  0  0  0  0  0  0  0  0  0  0  0
   -1.6408    1.1789   -8.1818 N   0  0  0  0  0  0  0  0  0  0  0  0
   -1.5927    0.9953   -9.1636 H   0  0  0  0  0  0  0  0  0  0  0  0
   -0.7822    0.7022   -7.2238 C   0  0  0  0  0  0  0  0  0  0  0  0
   -1.2439    1.2154   -5.9993 C   0  0  0  0  0  0  0  0  0  0  0  0
   -2.3362    1.9722   -6.2703 N   0  0  0  0  0  0  0  0  0  0  0  0
   -0.5374    0.8884   -4.8318 C   0  0  0  0  0  0  0  0  0  0  0  0
    0.5268    0.1028   -4.9324 N   0  0  0  0  0  0  0  0  0  0  0  0
    0.9261   -0.3652   -6.1082 C   0  0  0  0  0  0  0  0  0  0  0  0
    0.2932   -0.0778   -7.2341 N   0  0  0  0  0  0  0  0  0  0  0  0
    2.0438   -1.1819   -6.1587 N   0  0  0  0  0  0  0  0  0  0  0  0
   -0.9371    1.3604   -3.6266 O   0  0  0  0  0  0  0  0  0  0  0  0
   -0.1636    0.9730   -2.4892 C   0  0  0  0  0  0  0  0  0  0  0  0
   -0.7630    1.5981   -1.2279 C   0  0  1  0  0  0  0  0  0  0  0  0
   -1.8174    1.3322   -1.1528 H   0  0  0  0  0  0  0  0  0  0  0  0
   -0.0127    1.0858    0.0080 C   0  0  0  0  0  0  0  0  0  0  0  0
   -0.7374    1.5835    1.2605 C   0  0  0  0  0  0  0  0  0  0  0  0
   -1.0031    3.0575    1.1514 C   0  0  0  0  0  0  0  0  0  0  0  0
   -0.9520    3.7249    0.0435 C   0  0  0  0  0  0  0  0  0  0  0  0
   -0.6147    3.1200   -1.2878 C   0  0  0  0  0  0  0  0  0  0  0  0
   -3.3855    2.4649   -8.0385 H   0  0  0  0  0  0  0  0  0  0  0  0
    2.5203   -1.4028   -5.3432 H   0  0  0  0  0  0  0  0  0  0  0  0
    2.3500   -1.5330   -7.0095 H   0  0  0  0  0  0  0  0  0  0  0  0
    0.8629    1.3181   -2.6132 H   0  0  0  0  0  0  0  0  0  0  0  0
   -0.1731   -0.1130   -2.3962 H   0  0  0  0  0  0  0  0  0  0  0  0
    0.0021   -0.0041    0.0020 H   0  0  0  0  0  0  0  0  0  0  0  0
    1.0088    1.4661    0.0003 H   0  0  0  0  0  0  0  0  0  0  0  0
   -1.6851    1.0550    1.3636 H   0  0  0  0  0  0  0  0  0  0  0  0
   -0.1198    1.3880    2.1370 H   0  0  0  0  0  0  0  0  0  0  0  0
   -1.2485    3.5948    2.0555 H   0  0  0  0  0  0  0  0  0  0  0  0
   -1.1657    4.7830    0.0794 H   0  0  0  0  0  0  0  0  0  0  0  0
    0.4127    3.3729   -1.5497 H   0  0  0  0  0  0  0  0  0  0  0  0
   -1.2894    3.5192   -2.0452 H   0  0  0  0  0  0  0  0  0  0  0  0
  1  6  2  0        0
  1  2  1  0        0
  1 21  1  0        0
  2  3  1  0        0
  2  4  1  0        0
  4 10  2  0        0
  4  5  1  0        0
  5  6  1  0        0
  5  7  2  0        0
  7  8  1  0        0
  7 12  1  0        0
  8  9  2  0        0
  9 10  1  0        0
  9 11  1  0        0
 11 22  1  0        0
 11 23  1  0        0
 12 13  1  0        0
 13 14  1  0        0
 13 24  1  0        0
 13 25  1  0        0
 14 15  1  0        0
 14 20  1  0        0
 14 16  1  0        0
 16 17  1  0        0
 16 26  1  0        0
 16 27  1  0        0
 17 18  1  0        0
 17 28  1  0        0
 17 29  1  0        0
 18 19  2  0        0
 18 30  1  0        0
 19 20  1  0        0
 19 31  1  0        0
 20 32  1  0        0
 20 33  1  0        0
M  END
>  <MolfileName> (37)
ZINC03814458

$$$$
ZINC03814459
csCF1202/ 12301312233D

 30 32  0  0  0  0  0  0  0  0999 V2000
    6.8555    5.5798    1.0594 C   0  0  0  0  0  0  0  0  0  0  0  0
    6.4169    6.5348    1.9296 N   0  0  0  0  0  0  0  0  0  0  0  0
    6.9637    7.2753    2.3203 H   0  0  0  0  0  0  0  0  0  0  0  0
    5.0881    6.2927    2.1703 C   0  0  0  0  0  0  0  0  0  0  0  0
    4.7566    5.1581    1.4096 C   0  0  0  0  0  0  0  0  0  0  0  0
    5.8808    4.7737    0.7558 N   0  0  0  0  0  0  0  0  0  0  0  0
    3.4385    4.6804    1.4668 C   0  0  0  0  0  0  0  0  0  0  0  0
    2.5631    5.3212    2.2303 N   0  0  0  0  0  0  0  0  0  0  0  0
    2.9189    6.3866    2.9370 C   0  0  0  0  0  0  0  0  0  0  0  0
    4.1501    6.8708    2.9126 N   0  0  0  0  0  0  0  0  0  0  0  0
    1.9676    7.0166    3.7225 N   0  0  0  0  0  0  0  0  0  0  0  0
    3.0663    3.5909    0.7530 O   0  0  0  0  0  0  0  0  0  0  0  0
    1.7048    3.1728    0.8698 C   0  0  0  0  0  0  0  0  0  0  0  0
    1.4743    1.9366   -0.0016 C   0  0  2  0  0  0  0  0  0  0  0  0
    1.8092    2.1228   -1.0220 H   0  0  0  0  0  0  0  0  0  0  0  0
   -0.0189    1.5409    0.0105 C   0  0  0  0  0  0  0  0  0  0  0  0
    0.0021   -0.0041    0.0020 C   0  0  0  0  0  0  0  0  0  0  0  0
    1.5055   -0.3590   -0.0142 C   0  0  0  0  0  0  0  0  0  0  0  0
    2.1632    0.7948    0.5532 O   0  0  0  0  0  0  0  0  0  0  0  0
    7.8632    5.5048    0.6783 H   0  0  0  0  0  0  0  0  0  0  0  0
    2.2090    7.7990    4.2425 H   0  0  0  0  0  0  0  0  0  0  0  0
    1.0601    6.6754    3.7524 H   0  0  0  0  0  0  0  0  0  0  0  0
    1.0480    3.9777    0.5397 H   0  0  0  0  0  0  0  0  0  0  0  0
    1.4873    2.9299    1.9099 H   0  0  0  0  0  0  0  0  0  0  0  0
   -0.5219    1.9209   -0.8786 H   0  0  0  0  0  0  0  0  0  0  0  0
   -0.5048    1.9113    0.9131 H   0  0  0  0  0  0  0  0  0  0  0  0
   -0.4735   -0.3974    0.9004 H   0  0  0  0  0  0  0  0  0  0  0  0
   -0.4906   -0.3878   -0.8913 H   0  0  0  0  0  0  0  0  0  0  0  0
    1.6936   -1.2417    0.5969 H   0  0  0  0  0  0  0  0  0  0  0  0
    1.8447   -0.5267   -1.0364 H   0  0  0  0  0  0  0  0  0  0  0  0
  1  6  2  0        0
  1  2  1  0        0
  1 20  1  0        0
  2  3  1  0        0
  2  4  1  0        0
  4 10  2  0        0
  4  5  1  0        0
  5  6  1  0        0
  5  7  2  0        0
  7  8  1  0        0
  7 12  1  0        0
  8  9  2  0        0
  9 10  1  0        0
  9 11  1  0        0
 11 21  1  0        0
 11 22  1  0        0
 12 13  1  0        0
 13 14  1  0        0
 13 23  1  0        0
 13 24  1  0        0
 14 15  1  0        0
 14 19  1  0        0
 14 16  1  0        0
 16 17  1  0        0
 16 25  1  0        0
 16 26  1  0        0
 17 18  1  0        0
 17 27  1  0        0
 17 28  1  0        0
 18 19  1  0        0
 18 29  1  0        0
 18 30  1  0        0
M  END
>  <MolfileName> (38)
ZINC03814459

$$$$
ZINC03814459
csCF1202/ 12301312233D

 30 32  0  0  0  0  0  0  0  0999 V2000
    6.8555    5.5798    1.0594 C   0  0  0  0  0  0  0  0  0  0  0  0
    6.4169    6.5348    1.9296 N   0  0  0  0  0  0  0  0  0  0  0  0
    6.9637    7.2753    2.3203 H   0  0  0  0  0  0  0  0  0  0  0  0
    5.0881    6.2927    2.1703 C   0  0  0  0  0  0  0  0  0  0  0  0
    4.7566    5.1581    1.4096 C   0  0  0  0  0  0  0  0  0  0  0  0
    5.8808    4.7737    0.7558 N   0  0  0  0  0  0  0  0  0  0  0  0
    3.4385    4.6804    1.4668 C   0  0  0  0  0  0  0  0  0  0  0  0
    2.5631    5.3212    2.2303 N   0  0  0  0  0  0  0  0  0  0  0  0
    2.9189    6.3866    2.9370 C   0  0  0  0  0  0  0  0  0  0  0  0
    4.1501    6.8708    2.9126 N   0  0  0  0  0  0  0  0  0  0  0  0
    1.9676    7.0166    3.7225 N   0  0  0  0  0  0  0  0  0  0  0  0
    3.0663    3.5909    0.7530 O   0  0  0  0  0  0  0  0  0  0  0  0
    1.7048    3.1728    0.8698 C   0  0  0  0  0  0  0  0  0  0  0  0
    1.4743    1.9366   -0.0016 C   0  0  2  0  0  0  0  0  0  0  0  0
    1.8092    2.1228   -1.0220 H   0  0  0  0  0  0  0  0  0  0  0  0
   -0.0189    1.5409    0.0105 C   0  0  0  0  0  0  0  0  0  0  0  0
    0.0021   -0.0041    0.0020 C   0  0  0  0  0  0  0  0  0  0  0  0
    1.5055   -0.3590   -0.0142 C   0  0  0  0  0  0  0  0  0  0  0  0
    2.1632    0.7948    0.5532 O   0  0  0  0  0  0  0  0  0  0  0  0
    7.8632    5.5048    0.6783 H   0  0  0  0  0  0  0  0  0  0  0  0
    2.2090    7.7990    4.2425 H   0  0  0  0  0  0  0  0  0  0  0  0
    1.0601    6.6754    3.7524 H   0  0  0  0  0  0  0  0  0  0  0  0
    1.0480    3.9777    0.5397 H   0  0  0  0  0  0  0  0  0  0  0  0
    1.4873    2.9299    1.9099 H   0  0  0  0  0  0  0  0  0  0  0  0
   -0.5219    1.9209   -0.8786 H   0  0  0  0  0  0  0  0  0  0  0  0
   -0.5048    1.9113    0.9131 H   0  0  0  0  0  0  0  0  0  0  0  0
   -0.4735   -0.3974    0.9004 H   0  0  0  0  0  0  0  0  0  0  0  0
   -0.4906   -0.3878   -0.8913 H   0  0  0  0  0  0  0  0  0  0  0  0
    1.6936   -1.2417    0.5969 H   0  0  0  0  0  0  0  0  0  0  0  0
    1.8447   -0.5267   -1.0364 H   0  0  0  0  0  0  0  0  0  0  0  0
  1  6  2  0        0
  1  2  1  0        0
  1 20  1  0        0
  2  3  1  0        0
  2  4  1  0        0
  4 10  2  0        0
  4  5  1  0        0
  5  6  1  0        0
  5  7  2  0        0
  7  8  1  0        0
  7 12  1  0        0
  8  9  2  0        0
  9 10  1  0        0
  9 11  1  0        0
 11 21  1  0        0
 11 22  1  0        0
 12 13  1  0        0
 13 14  1  0        0
 13 23  1  0        0
 13 24  1  0        0
 14 15  1  0        0
 14 19  1  0        0
 14 16  1  0        0
 16 17  1  0        0
 16 25  1  0        0
 16 26  1  0        0
 17 18  1  0        0
 17 27  1  0        0
 17 28  1  0        0
 18 19  1  0        0
 18 29  1  0        0
 18 30  1  0        0
M  END
>  <MolfileName> (39)
ZINC03814459

$$$$
ZINC03814460
csCF1202/ 12301312233D

 30 32  0  0  0  0  0  0  0  0999 V2000
   -4.0453    5.0610    0.0498 C   0  0  0  0  0  0  0  0  0  0  0  0
   -2.6835    4.9782    0.0428 N   0  0  0  0  0  0  0  0  0  0  0  0
   -2.0440    5.7470    0.0439 H   0  0  0  0  0  0  0  0  0  0  0  0
   -2.3524    3.6469    0.0339 C   0  0  0  0  0  0  0  0  0  0  0  0
   -3.5700    2.9445    0.0359 C   0  0  0  0  0  0  0  0  0  0  0  0
   -4.5633    3.8678    0.0457 N   0  0  0  0  0  0  0  0  0  0  0  0
   -3.5292    1.5419    0.0276 C   0  0  0  0  0  0  0  0  0  0  0  0
   -2.3467    0.9409    0.0183 N   0  0  0  0  0  0  0  0  0  0  0  0
   -1.2200    1.6421    0.0168 C   0  0  0  0  0  0  0  0  0  0  0  0
   -1.2121    2.9651    0.0294 N   0  0  0  0  0  0  0  0  0  0  0  0
   -0.0111    0.9658    0.0074 N   0  0  0  0  0  0  0  0  0  0  0  0
   -4.6735    0.8169    0.0286 O   0  0  0  0  0  0  0  0  0  0  0  0
   -4.5400   -0.6059    0.0193 C   0  0  0  0  0  0  0  0  0  0  0  0
   -5.9285   -1.2484    0.0220 C   0  0  1  0  0  0  0  0  0  0  0  0
   -6.5178   -0.8754   -0.8156 H   0  0  0  0  0  0  0  0  0  0  0  0
   -5.8059   -2.7866   -0.0512 C   0  0  0  0  0  0  0  0  0  0  0  0
   -6.9874   -3.2397    0.8374 C   0  0  0  0  0  0  0  0  0  0  0  0
   -7.2225   -2.0697    1.7671 C   0  0  0  0  0  0  0  0  0  0  0  0
   -7.8662   -2.1167    2.7939 O   0  0  0  0  0  0  0  0  0  0  0  0
   -6.6144   -0.9702    1.2894 N   0  0  0  0  0  0  0  0  0  0  0  0
   -4.6100    5.9816    0.0572 H   0  0  0  0  0  0  0  0  0  0  0  0
    0.0021   -0.0041    0.0020 H   0  0  0  0  0  0  0  0  0  0  0  0
    0.8223    1.4622    0.0021 H   0  0  0  0  0  0  0  0  0  0  0  0
   -3.9987   -0.9142   -0.8751 H   0  0  0  0  0  0  0  0  0  0  0  0
   -3.9902   -0.9250    0.9048 H   0  0  0  0  0  0  0  0  0  0  0  0
   -5.9301   -3.1395   -1.0750 H   0  0  0  0  0  0  0  0  0  0  0  0
   -4.8552   -3.1223    0.3629 H   0  0  0  0  0  0  0  0  0  0  0  0
   -6.7180   -4.1302    1.4054 H   0  0  0  0  0  0  0  0  0  0  0  0
   -7.8731   -3.4288    0.2307 H   0  0  0  0  0  0  0  0  0  0  0  0
   -6.6270   -0.1042    1.7262 H   0  0  0  0  0  0  0  0  0  0  0  0
  1  6  2  0        0
  1  2  1  0        0
  1 21  1  0        0
  2  3  1  0        0
  2  4  1  0        0
  4 10  2  0        0
  4  5  1  0        0
  5  6  1  0        0
  5  7  2  0        0
  7  8  1  0        0
  7 12  1  0        0
  8  9  2  0        0
  9 10  1  0        0
  9 11  1  0        0
 11 22  1  0        0
 11 23  1  0        0
 12 13  1  0        0
 13 14  1  0        0
 13 24  1  0        0
 13 25  1  0        0
 14 15  1  0        0
 14 20  1  0        0
 14 16  1  0        0
 16 17  1  0        0
 16 26  1  0        0
 16 27  1  0        0
 17 18  1  0        0
 17 28  1  0        0
 17 29  1  0        0
 18 19  2  0        0
 18 20  1  0        0
 20 30  1  0        0
M  END
>  <MolfileName> (40)
ZINC03814460

$$$$
ZINC03814460
csCF1202/ 12301312233D

 30 32  0  0  0  0  0  0  0  0999 V2000
   -4.0453    5.0610    0.0498 C   0  0  0  0  0  0  0  0  0  0  0  0
   -2.6835    4.9782    0.0428 N   0  0  0  0  0  0  0  0  0  0  0  0
   -2.0440    5.7470    0.0439 H   0  0  0  0  0  0  0  0  0  0  0  0
   -2.3524    3.6469    0.0339 C   0  0  0  0  0  0  0  0  0  0  0  0
   -3.5700    2.9445    0.0359 C   0  0  0  0  0  0  0  0  0  0  0  0
   -4.5633    3.8678    0.0457 N   0  0  0  0  0  0  0  0  0  0  0  0
   -3.5292    1.5419    0.0276 C   0  0  0  0  0  0  0  0  0  0  0  0
   -2.3467    0.9409    0.0183 N   0  0  0  0  0  0  0  0  0  0  0  0
   -1.2200    1.6421    0.0168 C   0  0  0  0  0  0  0  0  0  0  0  0
   -1.2121    2.9651    0.0294 N   0  0  0  0  0  0  0  0  0  0  0  0
   -0.0111    0.9658    0.0074 N   0  0  0  0  0  0  0  0  0  0  0  0
   -4.6735    0.8169    0.0286 O   0  0  0  0  0  0  0  0  0  0  0  0
   -4.5400   -0.6059    0.0193 C   0  0  0  0  0  0  0  0  0  0  0  0
   -5.9285   -1.2484    0.0220 C   0  0  1  0  0  0  0  0  0  0  0  0
   -6.5178   -0.8754   -0.8156 H   0  0  0  0  0  0  0  0  0  0  0  0
   -5.8059   -2.7866   -0.0512 C   0  0  0  0  0  0  0  0  0  0  0  0
   -6.9874   -3.2397    0.8374 C   0  0  0  0  0  0  0  0  0  0  0  0
   -7.2225   -2.0697    1.7671 C   0  0  0  0  0  0  0  0  0  0  0  0
   -7.8662   -2.1167    2.7939 O   0  0  0  0  0  0  0  0  0  0  0  0
   -6.6144   -0.9702    1.2894 N   0  0  0  0  0  0  0  0  0  0  0  0
   -4.6100    5.9816    0.0572 H   0  0  0  0  0  0  0  0  0  0  0  0
    0.0021   -0.0041    0.0020 H   0  0  0  0  0  0  0  0  0  0  0  0
    0.8223    1.4622    0.0021 H   0  0  0  0  0  0  0  0  0  0  0  0
   -3.9987   -0.9142   -0.8751 H   0  0  0  0  0  0  0  0  0  0  0  0
   -3.9902   -0.9250    0.9048 H   0  0  0  0  0  0  0  0  0  0  0  0
   -5.9301   -3.1395   -1.0750 H   0  0  0  0  0  0  0  0  0  0  0  0
   -4.8552   -3.1223    0.3629 H   0  0  0  0  0  0  0  0  0  0  0  0
   -6.7180   -4.1302    1.4054 H   0  0  0  0  0  0  0  0  0  0  0  0
   -7.8731   -3.4288    0.2307 H   0  0  0  0  0  0  0  0  0  0  0  0
   -6.6270   -0.1042    1.7262 H   0  0  0  0  0  0  0  0  0  0  0  0
  1  6  2  0        0
  1  2  1  0        0
  1 21  1  0        0
  2  3  1  0        0
  2  4  1  0        0
  4 10  2  0        0
  4  5  1  0        0
  5  6  1  0        0
  5  7  2  0        0
  7  8  1  0        0
  7 12  1  0        0
  8  9  2  0        0
  9 10  1  0        0
  9 11  1  0        0
 11 22  1  0        0
 11 23  1  0        0
 12 13  1  0        0
 13 14  1  0        0
 13 24  1  0        0
 13 25  1  0        0
 14 15  1  0        0
 14 20  1  0        0
 14 16  1  0        0
 16 17  1  0        0
 16 26  1  0        0
 16 27  1  0        0
 17 18  1  0        0
 17 28  1  0        0
 17 29  1  0        0
 18 19  2  0        0
 18 20  1  0        0
 20 30  1  0        0
M  END
>  <MolfileName> (41)
ZINC03814460

$$$$
ZINC03814461
csCF1202/ 12301312233D

 45 48  0  0  0  0  0  0  0  0999 V2000
    2.3154    3.4904   -1.3077 C   0  0  0  0  0  0  0  0  0  0  0  0
    1.1553    2.7730   -1.0893 C   0  0  0  0  0  0  0  0  0  0  0  0
    1.1626    1.6908   -0.2188 C   0  0  0  0  0  0  0  0  0  0  0  0
    2.3399    1.3267    0.4223 C   0  0  0  0  0  0  0  0  0  0  0  0
    3.4985    2.0453    0.1960 C   0  0  0  0  0  0  0  0  0  0  0  0
    3.4860    3.1263   -0.6686 C   0  0  0  0  0  0  0  0  0  0  0  0
    4.9707    1.5917    0.9963 Cl  0  0  0  0  0  0  0  0  0  0  0  0
   -0.0111    0.9658    0.0074 N   0  0  0  0  0  0  0  0  0  0  0  0
   -1.2376    1.6119   -0.0023 C   0  0  0  0  0  0  0  0  0  0  0  0
   -2.3413    0.8896    0.1023 N   0  0  0  0  0  0  0  0  0  0  0  0
   -3.5339    1.4747    0.0967 C   0  0  0  0  0  0  0  0  0  0  0  0
   -3.6098    2.8734   -0.0221 C   0  0  0  0  0  0  0  0  0  0  0  0
   -2.4130    3.5979   -0.1311 C   0  0  0  0  0  0  0  0  0  0  0  0
   -1.2646    2.9343   -0.1108 N   0  0  0  0  0  0  0  0  0  0  0  0
   -2.4299    4.9475   -0.2479 O   0  0  0  0  0  0  0  0  0  0  0  0
   -1.1657    5.6053   -0.3537 C   0  0  0  0  0  0  0  0  0  0  0  0
   -1.3849    7.1145   -0.4765 C   0  0  0  0  0  0  0  0  0  0  0  0
   -2.1109    7.4194   -1.7884 C   0  0  0  0  0  0  0  0  0  0  0  0
   -2.3301    8.9286   -1.9112 C   0  0  0  0  0  0  0  0  0  0  0  0
   -0.9772    9.6431   -1.8991 C   0  0  0  0  0  0  0  0  0  0  0  0
   -0.2512    9.3382   -0.5873 C   0  0  0  0  0  0  0  0  0  0  0  0
   -0.0320    7.8290   -0.4644 C   0  0  0  0  0  0  0  0  0  0  0  0
   -4.9246    3.2048   -0.0011 N   0  0  0  0  0  0  0  0  0  0  0  0
   -5.6413    2.1260    0.1199 C   0  0  0  0  0  0  0  0  0  0  0  0
   -4.8294    1.0315    0.1843 N   0  0  0  0  0  0  0  0  0  0  0  0
   -5.1244    0.0806    0.2781 H   0  0  0  0  0  0  0  0  0  0  0  0
    2.3089    4.3342   -1.9817 H   0  0  0  0  0  0  0  0  0  0  0  0
    0.2423    3.0558   -1.5922 H   0  0  0  0  0  0  0  0  0  0  0  0
    2.3499    0.4829    1.0963 H   0  0  0  0  0  0  0  0  0  0  0  0
    4.3926    3.6861   -0.8446 H   0  0  0  0  0  0  0  0  0  0  0  0
    0.0324    0.0101    0.1671 H   0  0  0  0  0  0  0  0  0  0  0  0
   -0.5715    5.3957    0.5357 H   0  0  0  0  0  0  0  0  0  0  0  0
   -0.6396    5.2416   -1.2363 H   0  0  0  0  0  0  0  0  0  0  0  0
   -1.9876    7.4636    0.3619 H   0  0  0  0  0  0  0  0  0  0  0  0
   -1.5082    7.0703   -2.6268 H   0  0  0  0  0  0  0  0  0  0  0  0
   -3.0747    6.9104   -1.7970 H   0  0  0  0  0  0  0  0  0  0  0  0
   -2.9328    9.2776   -1.0728 H   0  0  0  0  0  0  0  0  0  0  0  0
   -2.8473    9.1458   -2.8458 H   0  0  0  0  0  0  0  0  0  0  0  0
   -1.1334   10.7183   -1.9866 H   0  0  0  0  0  0  0  0  0  0  0  0
   -0.3745    9.2940   -2.7375 H   0  0  0  0  0  0  0  0  0  0  0  0
   -0.8539    9.6873    0.2512 H   0  0  0  0  0  0  0  0  0  0  0  0
    0.7126    9.8472   -0.5786 H   0  0  0  0  0  0  0  0  0  0  0  0
    0.4852    7.6119    0.4701 H   0  0  0  0  0  0  0  0  0  0  0  0
    0.5707    7.4800   -1.3029 H   0  0  0  0  0  0  0  0  0  0  0  0
   -6.7201    2.1006    0.1633 H   0  0  0  0  0  0  0  0  0  0  0  0
  1  6  2  0        0
  1  2  1  0        0
  1 27  1  0        0
  2  3  2  0        0
  2 28  1  0        0
  3  4  1  0        0
  3  8  1  0        0
  4  5  2  0        0
  4 29  1  0        0
  5  6  1  0        0
  5  7  1  0        0
  6 30  1  0        0
  8  9  1  0        0
  8 31  1  0        0
  9 14  2  0        0
  9 10  1  0        0
 10 11  2  0        0
 11 25  1  0        0
 11 12  1  0        0
 12 13  2  0        0
 12 23  1  0        0
 13 14  1  0        0
 13 15  1  0        0
 15 16  1  0        0
 16 17  1  0        0
 16 32  1  0        0
 16 33  1  0        0
 17 22  1  0        0
 17 18  1  0        0
 17 34  1  0        0
 18 19  1  0        0
 18 35  1  0        0
 18 36  1  0        0
 19 20  1  0        0
 19 37  1  0        0
 19 38  1  0        0
 20 21  1  0        0
 20 39  1  0        0
 20 40  1  0        0
 21 22  1  0        0
 21 41  1  0        0
 21 42  1  0        0
 22 43  1  0        0
 22 44  1  0        0
 23 24  2  0        0
 24 25  1  0        0
 24 45  1  0        0
 25 26  1  0        0
M  END
>  <MolfileName> (42)
ZINC03814461

$$$$
ZINC03814461
csCF1202/ 12301312233D

 45 48  0  0  0  0  0  0  0  0999 V2000
    2.3154    3.4904   -1.3077 C   0  0  0  0  0  0  0  0  0  0  0  0
    1.1553    2.7730   -1.0893 C   0  0  0  0  0  0  0  0  0  0  0  0
    1.1626    1.6908   -0.2188 C   0  0  0  0  0  0  0  0  0  0  0  0
    2.3399    1.3267    0.4223 C   0  0  0  0  0  0  0  0  0  0  0  0
    3.4985    2.0453    0.1960 C   0  0  0  0  0  0  0  0  0  0  0  0
    3.4860    3.1263   -0.6686 C   0  0  0  0  0  0  0  0  0  0  0  0
    4.9707    1.5917    0.9963 Cl  0  0  0  0  0  0  0  0  0  0  0  0
   -0.0111    0.9658    0.0074 N   0  0  0  0  0  0  0  0  0  0  0  0
   -1.2376    1.6119   -0.0023 C   0  0  0  0  0  0  0  0  0  0  0  0
   -2.3413    0.8896    0.1023 N   0  0  0  0  0  0  0  0  0  0  0  0
   -3.5339    1.4747    0.0967 C   0  0  0  0  0  0  0  0  0  0  0  0
   -3.6098    2.8734   -0.0221 C   0  0  0  0  0  0  0  0  0  0  0  0
   -2.4130    3.5979   -0.1311 C   0  0  0  0  0  0  0  0  0  0  0  0
   -1.2646    2.9343   -0.1108 N   0  0  0  0  0  0  0  0  0  0  0  0
   -2.4299    4.9475   -0.2479 O   0  0  0  0  0  0  0  0  0  0  0  0
   -1.1657    5.6053   -0.3537 C   0  0  0  0  0  0  0  0  0  0  0  0
   -1.3849    7.1145   -0.4765 C   0  0  0  0  0  0  0  0  0  0  0  0
   -2.1109    7.4194   -1.7884 C   0  0  0  0  0  0  0  0  0  0  0  0
   -2.3301    8.9286   -1.9112 C   0  0  0  0  0  0  0  0  0  0  0  0
   -0.9772    9.6431   -1.8991 C   0  0  0  0  0  0  0  0  0  0  0  0
   -0.2512    9.3382   -0.5873 C   0  0  0  0  0  0  0  0  0  0  0  0
   -0.0320    7.8290   -0.4644 C   0  0  0  0  0  0  0  0  0  0  0  0
   -4.9246    3.2048   -0.0011 N   0  0  0  0  0  0  0  0  0  0  0  0
   -5.6413    2.1260    0.1199 C   0  0  0  0  0  0  0  0  0  0  0  0
   -4.8294    1.0315    0.1843 N   0  0  0  0  0  0  0  0  0  0  0  0
   -5.1244    0.0806    0.2781 H   0  0  0  0  0  0  0  0  0  0  0  0
    2.3089    4.3342   -1.9817 H   0  0  0  0  0  0  0  0  0  0  0  0
    0.2423    3.0558   -1.5922 H   0  0  0  0  0  0  0  0  0  0  0  0
    2.3499    0.4829    1.0963 H   0  0  0  0  0  0  0  0  0  0  0  0
    4.3926    3.6861   -0.8446 H   0  0  0  0  0  0  0  0  0  0  0  0
    0.0324    0.0101    0.1671 H   0  0  0  0  0  0  0  0  0  0  0  0
   -0.5715    5.3957    0.5357 H   0  0  0  0  0  0  0  0  0  0  0  0
   -0.6396    5.2416   -1.2363 H   0  0  0  0  0  0  0  0  0  0  0  0
   -1.9876    7.4636    0.3619 H   0  0  0  0  0  0  0  0  0  0  0  0
   -1.5082    7.0703   -2.6268 H   0  0  0  0  0  0  0  0  0  0  0  0
   -3.0747    6.9104   -1.7970 H   0  0  0  0  0  0  0  0  0  0  0  0
   -2.9328    9.2776   -1.0728 H   0  0  0  0  0  0  0  0  0  0  0  0
   -2.8473    9.1458   -2.8458 H   0  0  0  0  0  0  0  0  0  0  0  0
   -1.1334   10.7183   -1.9866 H   0  0  0  0  0  0  0  0  0  0  0  0
   -0.3745    9.2940   -2.7375 H   0  0  0  0  0  0  0  0  0  0  0  0
   -0.8539    9.6873    0.2512 H   0  0  0  0  0  0  0  0  0  0  0  0
    0.7126    9.8472   -0.5786 H   0  0  0  0  0  0  0  0  0  0  0  0
    0.4852    7.6119    0.4701 H   0  0  0  0  0  0  0  0  0  0  0  0
    0.5707    7.4800   -1.3029 H   0  0  0  0  0  0  0  0  0  0  0  0
   -6.7201    2.1006    0.1633 H   0  0  0  0  0  0  0  0  0  0  0  0
  1  6  2  0        0
  1  2  1  0        0
  1 27  1  0        0
  2  3  2  0        0
  2 28  1  0        0
  3  4  1  0        0
  3  8  1  0        0
  4  5  2  0        0
  4 29  1  0        0
  5  6  1  0        0
  5  7  1  0        0
  6 30  1  0        0
  8  9  1  0        0
  8 31  1  0        0
  9 14  2  0        0
  9 10  1  0        0
 10 11  2  0        0
 11 25  1  0        0
 11 12  1  0        0
 12 13  2  0        0
 12 23  1  0        0
 13 14  1  0        0
 13 15  1  0        0
 15 16  1  0        0
 16 17  1  0        0
 16 32  1  0        0
 16 33  1  0        0
 17 22  1  0        0
 17 18  1  0        0
 17 34  1  0        0
 18 19  1  0        0
 18 35  1  0        0
 18 36  1  0        0
 19 20  1  0        0
 19 37  1  0        0
 19 38  1  0        0
 20 21  1  0        0
 20 39  1  0        0
 20 40  1  0        0
 21 22  1  0        0
 21 41  1  0        0
 21 42  1  0        0
 22 43  1  0        0
 22 44  1  0        0
 23 24  2  0        0
 24 25  1  0        0
 24 45  1  0        0
 25 26  1  0        0
M  END
>  <MolfileName> (43)
ZINC03814461

$$$$
ZINC03814462
csCF1202/ 12301312233D

 45 48  0  0  0  0  0  0  0  0999 V2000
    3.4796    3.1360   -0.6650 C   0  0  0  0  0  0  0  0  0  0  0  0
    3.4948    2.0546    0.1967 C   0  0  0  0  0  0  0  0  0  0  0  0
    2.3391    1.3329    0.4220 C   0  0  0  0  0  0  0  0  0  0  0  0
    1.1606    1.6941   -0.2185 C   0  0  0  0  0  0  0  0  0  0  0  0
    1.1503    2.7772   -1.0882 C   0  0  0  0  0  0  0  0  0  0  0  0
    2.3082    3.4980   -1.3046 C   0  0  0  0  0  0  0  0  0  0  0  0
   -0.0111    0.9658    0.0074 N   0  0  0  0  0  0  0  0  0  0  0  0
   -1.2393    1.6088   -0.0006 C   0  0  0  0  0  0  0  0  0  0  0  0
   -2.3412    0.8830    0.0983 N   0  0  0  0  0  0  0  0  0  0  0  0
   -3.5352    1.4654    0.0989 C   0  0  0  0  0  0  0  0  0  0  0  0
   -3.6148    2.8641   -0.0178 C   0  0  0  0  0  0  0  0  0  0  0  0
   -2.4199    3.5920   -0.1254 C   0  0  0  0  0  0  0  0  0  0  0  0
   -1.2700    2.9308   -0.1125 N   0  0  0  0  0  0  0  0  0  0  0  0
   -2.4402    4.9417   -0.2396 O   0  0  0  0  0  0  0  0  0  0  0  0
   -1.1778    5.6031   -0.3436 C   0  0  0  0  0  0  0  0  0  0  0  0
   -1.4009    7.1119   -0.4638 C   0  0  0  0  0  0  0  0  0  0  0  0
   -2.1271    7.4173   -1.7754 C   0  0  0  0  0  0  0  0  0  0  0  0
   -2.3502    8.9261   -1.8955 C   0  0  0  0  0  0  0  0  0  0  0  0
   -0.9993    9.6442   -1.8814 C   0  0  0  0  0  0  0  0  0  0  0  0
   -0.2731    9.3388   -0.5698 C   0  0  0  0  0  0  0  0  0  0  0  0
   -0.0499    7.8300   -0.4497 C   0  0  0  0  0  0  0  0  0  0  0  0
   -4.9303    3.1921    0.0045 N   0  0  0  0  0  0  0  0  0  0  0  0
   -5.6442    2.1113    0.1243 C   0  0  0  0  0  0  0  0  0  0  0  0
   -4.8295    1.0188    0.1866 N   0  0  0  0  0  0  0  0  0  0  0  0
   -5.1220    0.0670    0.2792 H   0  0  0  0  0  0  0  0  0  0  0  0
    4.3848    3.6989   -0.8391 H   0  0  0  0  0  0  0  0  0  0  0  0
    4.4114    1.7742    0.6944 H   0  0  0  0  0  0  0  0  0  0  0  0
    2.3516    0.4884    1.0951 H   0  0  0  0  0  0  0  0  0  0  0  0
    0.2367    3.0579   -1.5912 H   0  0  0  0  0  0  0  0  0  0  0  0
    2.2999    4.3427   -1.9775 H   0  0  0  0  0  0  0  0  0  0  0  0
    0.0349    0.0099    0.1656 H   0  0  0  0  0  0  0  0  0  0  0  0
   -0.5834    5.3934    0.5456 H   0  0  0  0  0  0  0  0  0  0  0  0
   -0.6503    5.2423   -1.2267 H   0  0  0  0  0  0  0  0  0  0  0  0
   -2.0050    7.4578    0.3750 H   0  0  0  0  0  0  0  0  0  0  0  0
   -1.5231    7.0714   -2.6142 H   0  0  0  0  0  0  0  0  0  0  0  0
   -3.0896    6.9057   -1.7854 H   0  0  0  0  0  0  0  0  0  0  0  0
   -2.9543    9.2720   -1.0567 H   0  0  0  0  0  0  0  0  0  0  0  0
   -2.8676    9.1437   -2.8299 H   0  0  0  0  0  0  0  0  0  0  0  0
   -1.1582   10.7191   -1.9670 H   0  0  0  0  0  0  0  0  0  0  0  0
   -0.3952    9.2983   -2.7202 H   0  0  0  0  0  0  0  0  0  0  0  0
   -0.8771    9.6847    0.2690 H   0  0  0  0  0  0  0  0  0  0  0  0
    0.6894    9.8504   -0.5598 H   0  0  0  0  0  0  0  0  0  0  0  0
    0.4674    7.6125    0.4847 H   0  0  0  0  0  0  0  0  0  0  0  0
    0.5541    7.4841   -1.2885 H   0  0  0  0  0  0  0  0  0  0  0  0
   -6.7230    2.0830    0.1684 H   0  0  0  0  0  0  0  0  0  0  0  0
  1  6  2  0        0
  1  2  1  0        0
  1 26  1  0        0
  2  3  2  0        0
  2 27  1  0        0
  3  4  1  0        0
  3 28  1  0        0
  4  5  2  0        0
  4  7  1  0        0
  5  6  1  0        0
  5 29  1  0        0
  6 30  1  0        0
  7  8  1  0        0
  7 31  1  0        0
  8 13  2  0        0
  8  9  1  0        0
  9 10  2  0        0
 10 24  1  0        0
 10 11  1  0        0
 11 12  2  0        0
 11 22  1  0        0
 12 13  1  0        0
 12 14  1  0        0
 14 15  1  0        0
 15 16  1  0        0
 15 32  1  0        0
 15 33  1  0        0
 16 21  1  0        0
 16 17  1  0        0
 16 34  1  0        0
 17 18  1  0        0
 17 35  1  0        0
 17 36  1  0        0
 18 19  1  0        0
 18 37  1  0        0
 18 38  1  0        0
 19 20  1  0        0
 19 39  1  0        0
 19 40  1  0        0
 20 21  1  0        0
 20 41  1  0        0
 20 42  1  0        0
 21 43  1  0        0
 21 44  1  0        0
 22 23  2  0        0
 23 24  1  0        0
 23 45  1  0        0
 24 25  1  0        0
M  END
>  <MolfileName> (44)
ZINC03814462

$$$$
ZINC03814462
csCF1202/ 12301312233D

 45 48  0  0  0  0  0  0  0  0999 V2000
    3.4796    3.1360   -0.6650 C   0  0  0  0  0  0  0  0  0  0  0  0
    3.4948    2.0546    0.1967 C   0  0  0  0  0  0  0  0  0  0  0  0
    2.3391    1.3329    0.4220 C   0  0  0  0  0  0  0  0  0  0  0  0
    1.1606    1.6941   -0.2185 C   0  0  0  0  0  0  0  0  0  0  0  0
    1.1503    2.7772   -1.0882 C   0  0  0  0  0  0  0  0  0  0  0  0
    2.3082    3.4980   -1.3046 C   0  0  0  0  0  0  0  0  0  0  0  0
   -0.0111    0.9658    0.0074 N   0  0  0  0  0  0  0  0  0  0  0  0
   -1.2393    1.6088   -0.0006 C   0  0  0  0  0  0  0  0  0  0  0  0
   -2.3412    0.8830    0.0983 N   0  0  0  0  0  0  0  0  0  0  0  0
   -3.5352    1.4654    0.0989 C   0  0  0  0  0  0  0  0  0  0  0  0
   -3.6148    2.8641   -0.0178 C   0  0  0  0  0  0  0  0  0  0  0  0
   -2.4199    3.5920   -0.1254 C   0  0  0  0  0  0  0  0  0  0  0  0
   -1.2700    2.9308   -0.1125 N   0  0  0  0  0  0  0  0  0  0  0  0
   -2.4402    4.9417   -0.2396 O   0  0  0  0  0  0  0  0  0  0  0  0
   -1.1778    5.6031   -0.3436 C   0  0  0  0  0  0  0  0  0  0  0  0
   -1.4009    7.1119   -0.4638 C   0  0  0  0  0  0  0  0  0  0  0  0
   -2.1271    7.4173   -1.7754 C   0  0  0  0  0  0  0  0  0  0  0  0
   -2.3502    8.9261   -1.8955 C   0  0  0  0  0  0  0  0  0  0  0  0
   -0.9993    9.6442   -1.8814 C   0  0  0  0  0  0  0  0  0  0  0  0
   -0.2731    9.3388   -0.5698 C   0  0  0  0  0  0  0  0  0  0  0  0
   -0.0499    7.8300   -0.4497 C   0  0  0  0  0  0  0  0  0  0  0  0
   -4.9303    3.1921    0.0045 N   0  0  0  0  0  0  0  0  0  0  0  0
   -5.6442    2.1113    0.1243 C   0  0  0  0  0  0  0  0  0  0  0  0
   -4.8295    1.0188    0.1866 N   0  0  0  0  0  0  0  0  0  0  0  0
   -5.1220    0.0670    0.2792 H   0  0  0  0  0  0  0  0  0  0  0  0
    4.3848    3.6989   -0.8391 H   0  0  0  0  0  0  0  0  0  0  0  0
    4.4114    1.7742    0.6944 H   0  0  0  0  0  0  0  0  0  0  0  0
    2.3516    0.4884    1.0951 H   0  0  0  0  0  0  0  0  0  0  0  0
    0.2367    3.0579   -1.5912 H   0  0  0  0  0  0  0  0  0  0  0  0
    2.2999    4.3427   -1.9775 H   0  0  0  0  0  0  0  0  0  0  0  0
    0.0349    0.0099    0.1656 H   0  0  0  0  0  0  0  0  0  0  0  0
   -0.5834    5.3934    0.5456 H   0  0  0  0  0  0  0  0  0  0  0  0
   -0.6503    5.2423   -1.2267 H   0  0  0  0  0  0  0  0  0  0  0  0
   -2.0050    7.4578    0.3750 H   0  0  0  0  0  0  0  0  0  0  0  0
   -1.5231    7.0714   -2.6142 H   0  0  0  0  0  0  0  0  0  0  0  0
   -3.0896    6.9057   -1.7854 H   0  0  0  0  0  0  0  0  0  0  0  0
   -2.9543    9.2720   -1.0567 H   0  0  0  0  0  0  0  0  0  0  0  0
   -2.8676    9.1437   -2.8299 H   0  0  0  0  0  0  0  0  0  0  0  0
   -1.1582   10.7191   -1.9670 H   0  0  0  0  0  0  0  0  0  0  0  0
   -0.3952    9.2983   -2.7202 H   0  0  0  0  0  0  0  0  0  0  0  0
   -0.8771    9.6847    0.2690 H   0  0  0  0  0  0  0  0  0  0  0  0
    0.6894    9.8504   -0.5598 H   0  0  0  0  0  0  0  0  0  0  0  0
    0.4674    7.6125    0.4847 H   0  0  0  0  0  0  0  0  0  0  0  0
    0.5541    7.4841   -1.2885 H   0  0  0  0  0  0  0  0  0  0  0  0
   -6.7230    2.0830    0.1684 H   0  0  0  0  0  0  0  0  0  0  0  0
  1  6  2  0        0
  1  2  1  0        0
  1 26  1  0        0
  2  3  2  0        0
  2 27  1  0        0
  3  4  1  0        0
  3 28  1  0        0
  4  5  2  0        0
  4  7  1  0        0
  5  6  1  0        0
  5 29  1  0        0
  6 30  1  0        0
  7  8  1  0        0
  7 31  1  0        0
  8 13  2  0        0
  8  9  1  0        0
  9 10  2  0        0
 10 24  1  0        0
 10 11  1  0        0
 11 12  2  0        0
 11 22  1  0        0
 12 13  1  0        0
 12 14  1  0        0
 14 15  1  0        0
 15 16  1  0        0
 15 32  1  0        0
 15 33  1  0        0
 16 21  1  0        0
 16 17  1  0        0
 16 34  1  0        0
 17 18  1  0        0
 17 35  1  0        0
 17 36  1  0        0
 18 19  1  0        0
 18 37  1  0        0
 18 38  1  0        0
 19 20  1  0        0
 19 39  1  0        0
 19 40  1  0        0
 20 21  1  0        0
 20 41  1  0        0
 20 42  1  0        0
 21 43  1  0        0
 21 44  1  0        0
 22 23  2  0        0
 23 24  1  0        0
 23 45  1  0        0
 24 25  1  0        0
M  END
>  <MolfileName> (45)
ZINC03814462

$$$$
ZINC03814464
csCF1202/ 12301312233D

 35 37  0  0  0  0  0  0  0  0999 V2000
   -0.8122    1.9815    2.6463 C   0  0  0  0  0  0  0  0  0  0  0  0
   -1.3771    2.3773    1.2806 C   0  0  0  0  0  0  0  0  0  0  0  0
   -0.5918    1.6643    0.1779 C   0  0  0  0  0  0  0  0  0  0  0  0
   -1.1567    2.0600   -1.1878 C   0  0  0  0  0  0  0  0  0  0  0  0
   -0.4232    1.3941   -2.2177 O   0  0  0  0  0  0  0  0  0  0  0  0
   -0.7989    1.6373   -3.4950 C   0  0  0  0  0  0  0  0  0  0  0  0
   -1.7641    0.8405   -4.1313 C   0  0  0  0  0  0  0  0  0  0  0  0
   -2.5653   -0.3058   -3.7185 C   0  0  0  0  0  0  0  0  0  0  0  0
   -3.3162   -0.6446   -4.7276 N   0  0  0  0  0  0  0  0  0  0  0  0
   -3.0791    0.2090   -5.8090 N   0  0  0  0  0  0  0  0  0  0  0  0
   -3.5319    0.1548   -6.6990 H   0  0  0  0  0  0  0  0  0  0  0  0
   -2.1319    1.1286   -5.4591 C   0  0  0  0  0  0  0  0  0  0  0  0
   -1.5617    2.1414   -6.1092 N   0  0  0  0  0  0  0  0  0  0  0  0
   -0.6533    2.9043   -5.5501 C   0  0  0  0  0  0  0  0  0  0  0  0
   -0.2318    2.6916   -4.2299 C   0  0  0  0  0  0  0  0  0  0  0  0
    0.7908    3.5605   -3.6227 C   0  0  0  0  0  0  0  0  0  0  0  0
    1.2315    3.3015   -2.5182 O   0  0  0  0  0  0  0  0  0  0  0  0
    1.2796    4.7420   -4.3516 C   0  0  0  0  0  0  0  0  0  0  0  0
    2.2375    5.5998   -4.0187 N   0  0  0  0  0  0  0  0  0  0  0  0
    2.5254    6.5961   -4.8120 C   0  0  0  0  0  0  0  0  0  0  0  0
    1.8401    6.7522   -5.9815 C   0  0  0  0  0  0  0  0  0  0  0  0
    0.7487    5.4016   -5.9248 S   0  0  0  0  0  0  0  0  0  0  0  0
    0.2373    2.2703    2.7030 H   0  0  0  0  0  0  0  0  0  0  0  0
   -1.3717    2.4895    3.4319 H   0  0  0  0  0  0  0  0  0  0  0  0
   -0.8999    0.9030    2.7771 H   0  0  0  0  0  0  0  0  0  0  0  0
   -1.2894    3.4558    1.1498 H   0  0  0  0  0  0  0  0  0  0  0  0
   -2.4266    2.0885    1.2240 H   0  0  0  0  0  0  0  0  0  0  0  0
   -0.6795    0.5857    0.3087 H   0  0  0  0  0  0  0  0  0  0  0  0
    0.4577    1.9530    0.2345 H   0  0  0  0  0  0  0  0  0  0  0  0
   -2.2062    1.7713   -1.2445 H   0  0  0  0  0  0  0  0  0  0  0  0
   -1.0690    3.1386   -1.3186 H   0  0  0  0  0  0  0  0  0  0  0  0
   -2.5380   -0.7889   -2.7529 H   0  0  0  0  0  0  0  0  0  0  0  0
   -0.2201    3.7137   -6.1191 H   0  0  0  0  0  0  0  0  0  0  0  0
    3.3037    7.2950   -4.5431 H   0  0  0  0  0  0  0  0  0  0  0  0
    1.9501    7.5107   -6.7424 H   0  0  0  0  0  0  0  0  0  0  0  0
  1  2  1  0        0
  1 23  1  0        0
  1 24  1  0        0
  1 25  1  0        0
  2  3  1  0        0
  2 26  1  0        0
  2 27  1  0        0
  3  4  1  0        0
  3 28  1  0        0
  3 29  1  0        0
  4  5  1  0        0
  4 30  1  0        0
  4 31  1  0        0
  5  6  1  0        0
  6 15  2  0        0
  6  7  1  0        0
  7 12  2  0        0
  7  8  1  0        0
  8  9  2  0        0
  8 32  1  0        0
  9 10  1  0        0
 10 11  1  0        0
 10 12  1  0        0
 12 13  1  0        0
 13 14  2  0        0
 14 15  1  0        0
 14 33  1  0        0
 15 16  1  0        0
 16 17  2  0        0
 16 18  1  0        0
 18 22  1  0        0
 18 19  2  0        0
 19 20  1  0        0
 20 21  2  0        0
 20 34  1  0        0
 21 22  1  0        0
 21 35  1  0        0
M  END
>  <MolfileName> (46)
ZINC03814464

$$$$
ZINC03814464
csCF1202/ 12301312233D

 36 38  0  0  0  0  0  0  0  0999 V2000
   -0.8122    1.9815    2.6463 C   0  0  0  0  0  0  0  0  0  0  0  0
   -1.3771    2.3773    1.2806 C   0  0  0  0  0  0  0  0  0  0  0  0
   -0.5918    1.6643    0.1779 C   0  0  0  0  0  0  0  0  0  0  0  0
   -1.1567    2.0600   -1.1878 C   0  0  0  0  0  0  0  0  0  0  0  0
   -0.4232    1.3941   -2.2177 O   0  0  0  0  0  0  0  0  0  0  0  0
   -0.7989    1.6373   -3.4950 C   0  0  0  0  0  0  0  0  0  0  0  0
   -1.7641    0.8405   -4.1313 C   0  0  0  0  0  0  0  0  0  0  0  0
   -2.5653   -0.3058   -3.7185 C   0  0  0  0  0  0  0  0  0  0  0  0
   -3.3162   -0.6446   -4.7276 N   0  0  0  0  0  0  0  0  0  0  0  0
   -3.0791    0.2090   -5.8090 N   0  0  0  0  0  0  0  0  0  0  0  0
   -3.5319    0.1548   -6.6990 H   0  0  0  0  0  0  0  0  0  0  0  0
   -2.1319    1.1286   -5.4591 C   0  0  0  0  0  0  0  0  0  0  0  0
   -0.6533    2.9043   -5.5501 C   0  0  0  0  0  0  0  0  0  0  0  0
   -0.2318    2.6916   -4.2299 C   0  0  0  0  0  0  0  0  0  0  0  0
    0.7908    3.5605   -3.6227 C   0  0  0  0  0  0  0  0  0  0  0  0
    1.2315    3.3015   -2.5182 O   0  0  0  0  0  0  0  0  0  0  0  0
    1.2796    4.7420   -4.3516 C   0  0  0  0  0  0  0  0  0  0  0  0
    2.2375    5.5998   -4.0187 N   0  0  0  0  0  0  0  0  0  0  0  0
    2.5254    6.5961   -4.8120 C   0  0  0  0  0  0  0  0  0  0  0  0
    1.8401    6.7522   -5.9815 C   0  0  0  0  0  0  0  0  0  0  0  0
    0.7487    5.4016   -5.9248 S   0  0  0  0  0  0  0  0  0  0  0  0
    0.2373    2.2703    2.7030 H   0  0  0  0  0  0  0  0  0  0  0  0
   -1.3717    2.4895    3.4319 H   0  0  0  0  0  0  0  0  0  0  0  0
   -0.8999    0.9030    2.7771 H   0  0  0  0  0  0  0  0  0  0  0  0
   -1.2894    3.4558    1.1498 H   0  0  0  0  0  0  0  0  0  0  0  0
   -2.4266    2.0885    1.2240 H   0  0  0  0  0  0  0  0  0  0  0  0
   -0.6795    0.5857    0.3087 H   0  0  0  0  0  0  0  0  0  0  0  0
    0.4577    1.9530    0.2345 H   0  0  0  0  0  0  0  0  0  0  0  0
   -2.2062    1.7713   -1.2445 H   0  0  0  0  0  0  0  0  0  0  0  0
   -1.0690    3.1386   -1.3186 H   0  0  0  0  0  0  0  0  0  0  0  0
   -2.5380   -0.7889   -2.7529 H   0  0  0  0  0  0  0  0  0  0  0  0
   -0.2201    3.7137   -6.1191 H   0  0  0  0  0  0  0  0  0  0  0  0
    3.3037    7.2950   -4.5431 H   0  0  0  0  0  0  0  0  0  0  0  0
    1.9501    7.5107   -6.7424 H   0  0  0  0  0  0  0  0  0  0  0  0
   -1.5839    2.1568   -6.1866 N   0  3  0  0  0  0  0  0  0  0  0  0
   -1.8639    2.3467   -7.1560 H   0  0  0  0  0  0  0  0  0  0  0  0
  1  2  1  0        0
  1 22  1  0        0
  1 23  1  0        0
  1 24  1  0        0
  2  3  1  0        0
  2 25  1  0        0
  2 26  1  0        0
  3  4  1  0        0
  3 27  1  0        0
  3 28  1  0        0
  4  5  1  0        0
  4 29  1  0        0
  4 30  1  0        0
  5  6  1  0        0
  6 14  2  0        0
  6  7  1  0        0
  7 12  2  0        0
  7  8  1  0        0
  8  9  2  0        0
  8 31  1  0        0
  9 10  1  0        0
 10 11  1  0        0
 10 12  1  0        0
 12 35  1  0        0
 13 14  1  0        0
 13 32  1  0        0
 13 35  2  0        0
 14 15  1  0        0
 15 16  2  0        0
 15 17  1  0        0
 17 21  1  0        0
 17 18  2  0        0
 18 19  1  0        0
 19 20  2  0        0
 19 33  1  0        0
 20 21  1  0        0
 20 34  1  0        0
 35 36  1  0        0
M  CHG  1  35   1
M  END
>  <MolfileName> (47)
ZINC03814464

$$$$
ZINC03814464
csCF1202/ 12301312233D

 35 37  0  0  0  0  0  0  0  0999 V2000
   -0.8122    1.9815    2.6463 C   0  0  0  0  0  0  0  0  0  0  0  0
   -1.3771    2.3773    1.2806 C   0  0  0  0  0  0  0  0  0  0  0  0
   -0.5918    1.6643    0.1779 C   0  0  0  0  0  0  0  0  0  0  0  0
   -1.1567    2.0600   -1.1878 C   0  0  0  0  0  0  0  0  0  0  0  0
   -0.4232    1.3941   -2.2177 O   0  0  0  0  0  0  0  0  0  0  0  0
   -0.7989    1.6373   -3.4950 C   0  0  0  0  0  0  0  0  0  0  0  0
   -1.7641    0.8405   -4.1313 C   0  0  0  0  0  0  0  0  0  0  0  0
   -2.5653   -0.3058   -3.7185 C   0  0  0  0  0  0  0  0  0  0  0  0
   -3.3162   -0.6446   -4.7276 N   0  0  0  0  0  0  0  0  0  0  0  0
   -3.0791    0.2090   -5.8090 N   0  0  0  0  0  0  0  0  0  0  0  0
   -3.5319    0.1548   -6.6990 H   0  0  0  0  0  0  0  0  0  0  0  0
   -2.1319    1.1286   -5.4591 C   0  0  0  0  0  0  0  0  0  0  0  0
   -1.5617    2.1414   -6.1092 N   0  0  0  0  0  0  0  0  0  0  0  0
   -0.6533    2.9043   -5.5501 C   0  0  0  0  0  0  0  0  0  0  0  0
   -0.2318    2.6916   -4.2299 C   0  0  0  0  0  0  0  0  0  0  0  0
    0.7908    3.5605   -3.6227 C   0  0  0  0  0  0  0  0  0  0  0  0
    1.2315    3.3015   -2.5182 O   0  0  0  0  0  0  0  0  0  0  0  0
    1.2796    4.7420   -4.3516 C   0  0  0  0  0  0  0  0  0  0  0  0
    2.2375    5.5998   -4.0187 N   0  0  0  0  0  0  0  0  0  0  0  0
    2.5254    6.5961   -4.8120 C   0  0  0  0  0  0  0  0  0  0  0  0
    1.8401    6.7522   -5.9815 C   0  0  0  0  0  0  0  0  0  0  0  0
    0.7487    5.4016   -5.9248 S   0  0  0  0  0  0  0  0  0  0  0  0
    0.2373    2.2703    2.7030 H   0  0  0  0  0  0  0  0  0  0  0  0
   -1.3717    2.4895    3.4319 H   0  0  0  0  0  0  0  0  0  0  0  0
   -0.8999    0.9030    2.7771 H   0  0  0  0  0  0  0  0  0  0  0  0
   -1.2894    3.4558    1.1498 H   0  0  0  0  0  0  0  0  0  0  0  0
   -2.4266    2.0885    1.2240 H   0  0  0  0  0  0  0  0  0  0  0  0
   -0.6795    0.5857    0.3087 H   0  0  0  0  0  0  0  0  0  0  0  0
    0.4577    1.9530    0.2345 H   0  0  0  0  0  0  0  0  0  0  0  0
   -2.2062    1.7713   -1.2445 H   0  0  0  0  0  0  0  0  0  0  0  0
   -1.0690    3.1386   -1.3186 H   0  0  0  0  0  0  0  0  0  0  0  0
   -2.5380   -0.7889   -2.7529 H   0  0  0  0  0  0  0  0  0  0  0  0
   -0.2201    3.7137   -6.1191 H   0  0  0  0  0  0  0  0  0  0  0  0
    3.3037    7.2950   -4.5431 H   0  0  0  0  0  0  0  0  0  0  0  0
    1.9501    7.5107   -6.7424 H   0  0  0  0  0  0  0  0  0  0  0  0
  1  2  1  0        0
  1 23  1  0        0
  1 24  1  0        0
  1 25  1  0        0
  2  3  1  0        0
  2 26  1  0        0
  2 27  1  0        0
  3  4  1  0        0
  3 28  1  0        0
  3 29  1  0        0
  4  5  1  0        0
  4 30  1  0        0
  4 31  1  0        0
  5  6  1  0        0
  6 15  2  0        0
  6  7  1  0        0
  7 12  2  0        0
  7  8  1  0        0
  8  9  2  0        0
  8 32  1  0        0
  9 10  1  0        0
 10 11  1  0        0
 10 12  1  0        0
 12 13  1  0        0
 13 14  2  0        0
 14 15  1  0        0
 14 33  1  0        0
 15 16  1  0        0
 16 17  2  0        0
 16 18  1  0        0
 18 22  1  0        0
 18 19  2  0        0
 19 20  1  0        0
 20 21  2  0        0
 20 34  1  0        0
 21 22  1  0        0
 21 35  1  0        0
M  END
>  <MolfileName> (48)
ZINC03814464

$$$$
ZINC03814465
csCF1202/ 12301312233D

 39 41  0  0  0  0  0  0  0  0999 V2000
    0.1231    1.4546    2.6608 C   0  0  0  0  0  0  0  0  0  0  0  0
   -0.6266    2.0188    1.4523 C   0  0  0  0  0  0  0  0  0  0  0  0
   -0.0886    1.3755    0.1726 C   0  0  0  0  0  0  0  0  0  0  0  0
   -0.8383    1.9397   -1.0359 C   0  0  0  0  0  0  0  0  0  0  0  0
   -0.3358    1.3389   -2.2312 O   0  0  0  0  0  0  0  0  0  0  0  0
   -0.8964    1.7315   -3.3987 C   0  0  0  0  0  0  0  0  0  0  0  0
   -2.0112    1.0602   -3.9301 C   0  0  0  0  0  0  0  0  0  0  0  0
   -2.7888   -0.0391   -3.4957 C   0  0  0  0  0  0  0  0  0  0  0  0
   -3.7279   -0.2507   -4.3716 N   0  0  0  0  0  0  0  0  0  0  0  0
   -3.6259    0.6836   -5.4086 N   0  0  0  0  0  0  0  0  0  0  0  0
   -4.2258    0.7403   -6.2067 H   0  0  0  0  0  0  0  0  0  0  0  0
   -2.5663    1.5053   -5.1442 C   0  0  0  0  0  0  0  0  0  0  0  0
   -2.0360    2.5426   -5.7883 N   0  0  0  0  0  0  0  0  0  0  0  0
   -0.9930    3.1897   -5.3261 C   0  0  0  0  0  0  0  0  0  0  0  0
   -0.3796    2.8188   -4.1213 C   0  0  0  0  0  0  0  0  0  0  0  0
    0.7911    3.5591   -3.6207 C   0  0  0  0  0  0  0  0  0  0  0  0
    1.3536    3.1935   -2.6058 O   0  0  0  0  0  0  0  0  0  0  0  0
    1.2816    4.7436   -4.3498 C   0  0  0  0  0  0  0  0  0  0  0  0
    2.3346    4.6212   -5.2641 C   0  0  0  0  0  0  0  0  0  0  0  0
    2.7838    5.7347   -5.9475 C   0  0  0  0  0  0  0  0  0  0  0  0
    2.2038    6.9712   -5.7210 C   0  0  0  0  0  0  0  0  0  0  0  0
    1.1658    7.1020   -4.8143 C   0  0  0  0  0  0  0  0  0  0  0  0
    0.7004    5.9976   -4.1272 C   0  0  0  0  0  0  0  0  0  0  0  0
   -0.3129    6.1273   -3.2431 F   0  0  0  0  0  0  0  0  0  0  0  0
    2.8326    8.4899   -6.6559 Br  0  0  0  0  0  0  0  0  0  0  0  0
    2.9059    3.4165   -5.4821 F   0  0  0  0  0  0  0  0  0  0  0  0
   -0.0228    0.3754    2.7075 H   0  0  0  0  0  0  0  0  0  0  0  0
    1.1864    1.6736    2.5634 H   0  0  0  0  0  0  0  0  0  0  0  0
   -0.2602    1.9128    3.5725 H   0  0  0  0  0  0  0  0  0  0  0  0
   -0.4807    3.0979    1.4056 H   0  0  0  0  0  0  0  0  0  0  0  0
   -1.6900    1.7998    1.5497 H   0  0  0  0  0  0  0  0  0  0  0  0
   -0.2345    0.2964    0.2193 H   0  0  0  0  0  0  0  0  0  0  0  0
    0.9747    1.5945    0.0752 H   0  0  0  0  0  0  0  0  0  0  0  0
   -1.9017    1.7207   -0.9385 H   0  0  0  0  0  0  0  0  0  0  0  0
   -0.6924    3.0189   -1.0826 H   0  0  0  0  0  0  0  0  0  0  0  0
   -2.6275   -0.6091   -2.5926 H   0  0  0  0  0  0  0  0  0  0  0  0
   -0.5985    4.0253   -5.8853 H   0  0  0  0  0  0  0  0  0  0  0  0
    3.5931    5.6412   -6.6565 H   0  0  0  0  0  0  0  0  0  0  0  0
    0.7189    8.0703   -4.6435 H   0  0  0  0  0  0  0  0  0  0  0  0
  1  2  1  0        0
  1 27  1  0        0
  1 28  1  0        0
  1 29  1  0        0
  2  3  1  0        0
  2 30  1  0        0
  2 31  1  0        0
  3  4  1  0        0
  3 32  1  0        0
  3 33  1  0        0
  4  5  1  0        0
  4 34  1  0        0
  4 35  1  0        0
  5  6  1  0        0
  6 15  2  0        0
  6  7  1  0        0
  7 12  2  0        0
  7  8  1  0        0
  8  9  2  0        0
  8 36  1  0        0
  9 10  1  0        0
 10 11  1  0        0
 10 12  1  0        0
 12 13  1  0        0
 13 14  2  0        0
 14 15  1  0        0
 14 37  1  0        0
 15 16  1  0        0
 16 17  2  0        0
 16 18  1  0        0
 18 23  2  0        0
 18 19  1  0        0
 19 20  2  0        0
 19 26  1  0        0
 20 21  1  0        0
 20 38  1  0        0
 21 22  2  0        0
 21 25  1  0        0
 22 23  1  0        0
 22 39  1  0        0
 23 24  1  0        0
M  END
>  <MolfileName> (49)
ZINC03814465

$$$$
ZINC03814465
csCF1202/ 12301312233D

 40 42  0  0  0  0  0  0  0  0999 V2000
    0.1231    1.4546    2.6608 C   0  0  0  0  0  0  0  0  0  0  0  0
   -0.6266    2.0188    1.4523 C   0  0  0  0  0  0  0  0  0  0  0  0
   -0.0886    1.3755    0.1726 C   0  0  0  0  0  0  0  0  0  0  0  0
   -0.8383    1.9397   -1.0359 C   0  0  0  0  0  0  0  0  0  0  0  0
   -0.3358    1.3389   -2.2312 O   0  0  0  0  0  0  0  0  0  0  0  0
   -0.8964    1.7315   -3.3987 C   0  0  0  0  0  0  0  0  0  0  0  0
   -2.0112    1.0602   -3.9301 C   0  0  0  0  0  0  0  0  0  0  0  0
   -2.7888   -0.0391   -3.4957 C   0  0  0  0  0  0  0  0  0  0  0  0
   -3.7279   -0.2507   -4.3716 N   0  0  0  0  0  0  0  0  0  0  0  0
   -3.6259    0.6836   -5.4086 N   0  0  0  0  0  0  0  0  0  0  0  0
   -4.2258    0.7403   -6.2067 H   0  0  0  0  0  0  0  0  0  0  0  0
   -2.5663    1.5053   -5.1442 C   0  0  0  0  0  0  0  0  0  0  0  0
   -0.9930    3.1897   -5.3261 C   0  0  0  0  0  0  0  0  0  0  0  0
   -0.3796    2.8188   -4.1213 C   0  0  0  0  0  0  0  0  0  0  0  0
    0.7911    3.5591   -3.6207 C   0  0  0  0  0  0  0  0  0  0  0  0
    1.3536    3.1935   -2.6058 O   0  0  0  0  0  0  0  0  0  0  0  0
    1.2816    4.7436   -4.3498 C   0  0  0  0  0  0  0  0  0  0  0  0
    2.3346    4.6212   -5.2641 C   0  0  0  0  0  0  0  0  0  0  0  0
    2.7838    5.7347   -5.9475 C   0  0  0  0  0  0  0  0  0  0  0  0
    2.2038    6.9712   -5.7210 C   0  0  0  0  0  0  0  0  0  0  0  0
    1.1658    7.1020   -4.8143 C   0  0  0  0  0  0  0  0  0  0  0  0
    0.7004    5.9976   -4.1272 C   0  0  0  0  0  0  0  0  0  0  0  0
   -0.3129    6.1273   -3.2431 F   0  0  0  0  0  0  0  0  0  0  0  0
    2.8326    8.4899   -6.6559 Br  0  0  0  0  0  0  0  0  0  0  0  0
    2.9059    3.4165   -5.4821 F   0  0  0  0  0  0  0  0  0  0  0  0
   -0.0228    0.3754    2.7075 H   0  0  0  0  0  0  0  0  0  0  0  0
    1.1864    1.6736    2.5634 H   0  0  0  0  0  0  0  0  0  0  0  0
   -0.2602    1.9128    3.5725 H   0  0  0  0  0  0  0  0  0  0  0  0
   -0.4807    3.0979    1.4056 H   0  0  0  0  0  0  0  0  0  0  0  0
   -1.6900    1.7998    1.5497 H   0  0  0  0  0  0  0  0  0  0  0  0
   -0.2345    0.2964    0.2193 H   0  0  0  0  0  0  0  0  0  0  0  0
    0.9747    1.5945    0.0752 H   0  0  0  0  0  0  0  0  0  0  0  0
   -1.9017    1.7207   -0.9385 H   0  0  0  0  0  0  0  0  0  0  0  0
   -0.6924    3.0189   -1.0826 H   0  0  0  0  0  0  0  0  0  0  0  0
   -2.6275   -0.6091   -2.5926 H   0  0  0  0  0  0  0  0  0  0  0  0
   -0.5985    4.0253   -5.8853 H   0  0  0  0  0  0  0  0  0  0  0  0
    3.5931    5.6412   -6.6565 H   0  0  0  0  0  0  0  0  0  0  0  0
    0.7189    8.0703   -4.6435 H   0  0  0  0  0  0  0  0  0  0  0  0
   -2.0693    2.5670   -5.8590 N   0  3  0  0  0  0  0  0  0  0  0  0
   -2.4896    2.8703   -6.7453 H   0  0  0  0  0  0  0  0  0  0  0  0
  1  2  1  0        0
  1 26  1  0        0
  1 27  1  0        0
  1 28  1  0        0
  2  3  1  0        0
  2 29  1  0        0
  2 30  1  0        0
  3  4  1  0        0
  3 31  1  0        0
  3 32  1  0        0
  4  5  1  0        0
  4 33  1  0        0
  4 34  1  0        0
  5  6  1  0        0
  6 14  2  0        0
  6  7  1  0        0
  7 12  2  0        0
  7  8  1  0        0
  8  9  2  0        0
  8 35  1  0        0
  9 10  1  0        0
 10 11  1  0        0
 10 12  1  0        0
 12 39  1  0        0
 13 14  1  0        0
 13 36  1  0        0
 13 39  2  0        0
 14 15  1  0        0
 15 16  2  0        0
 15 17  1  0        0
 17 22  2  0        0
 17 18  1  0        0
 18 19  2  0        0
 18 25  1  0        0
 19 20  1  0        0
 19 37  1  0        0
 20 21  2  0        0
 20 24  1  0        0
 21 22  1  0        0
 21 38  1  0        0
 22 23  1  0        0
 39 40  1  0        0
M  CHG  1  39   1
M  END
>  <MolfileName> (50)
ZINC03814465

$$$$
ZINC03814465
csCF1202/ 12301312233D

 39 41  0  0  0  0  0  0  0  0999 V2000
    0.1231    1.4546    2.6608 C   0  0  0  0  0  0  0  0  0  0  0  0
   -0.6266    2.0188    1.4523 C   0  0  0  0  0  0  0  0  0  0  0  0
   -0.0886    1.3755    0.1726 C   0  0  0  0  0  0  0  0  0  0  0  0
   -0.8383    1.9397   -1.0359 C   0  0  0  0  0  0  0  0  0  0  0  0
   -0.3358    1.3389   -2.2312 O   0  0  0  0  0  0  0  0  0  0  0  0
   -0.8964    1.7315   -3.3987 C   0  0  0  0  0  0  0  0  0  0  0  0
   -2.0112    1.0602   -3.9301 C   0  0  0  0  0  0  0  0  0  0  0  0
   -2.7888   -0.0391   -3.4957 C   0  0  0  0  0  0  0  0  0  0  0  0
   -3.7279   -0.2507   -4.3716 N   0  0  0  0  0  0  0  0  0  0  0  0
   -3.6259    0.6836   -5.4086 N   0  0  0  0  0  0  0  0  0  0  0  0
   -4.2258    0.7403   -6.2067 H   0  0  0  0  0  0  0  0  0  0  0  0
   -2.5663    1.5053   -5.1442 C   0  0  0  0  0  0  0  0  0  0  0  0
   -2.0360    2.5426   -5.7883 N   0  0  0  0  0  0  0  0  0  0  0  0
   -0.9930    3.1897   -5.3261 C   0  0  0  0  0  0  0  0  0  0  0  0
   -0.3796    2.8188   -4.1213 C   0  0  0  0  0  0  0  0  0  0  0  0
    0.7911    3.5591   -3.6207 C   0  0  0  0  0  0  0  0  0  0  0  0
    1.3536    3.1935   -2.6058 O   0  0  0  0  0  0  0  0  0  0  0  0
    1.2816    4.7436   -4.3498 C   0  0  0  0  0  0  0  0  0  0  0  0
    2.3346    4.6212   -5.2641 C   0  0  0  0  0  0  0  0  0  0  0  0
    2.7838    5.7347   -5.9475 C   0  0  0  0  0  0  0  0  0  0  0  0
    2.2038    6.9712   -5.7210 C   0  0  0  0  0  0  0  0  0  0  0  0
    1.1658    7.1020   -4.8143 C   0  0  0  0  0  0  0  0  0  0  0  0
    0.7004    5.9976   -4.1272 C   0  0  0  0  0  0  0  0  0  0  0  0
   -0.3129    6.1273   -3.2431 F   0  0  0  0  0  0  0  0  0  0  0  0
    2.8326    8.4899   -6.6559 Br  0  0  0  0  0  0  0  0  0  0  0  0
    2.9059    3.4165   -5.4821 F   0  0  0  0  0  0  0  0  0  0  0  0
   -0.0228    0.3754    2.7075 H   0  0  0  0  0  0  0  0  0  0  0  0
    1.1864    1.6736    2.5634 H   0  0  0  0  0  0  0  0  0  0  0  0
   -0.2602    1.9128    3.5725 H   0  0  0  0  0  0  0  0  0  0  0  0
   -0.4807    3.0979    1.4056 H   0  0  0  0  0  0  0  0  0  0  0  0
   -1.6900    1.7998    1.5497 H   0  0  0  0  0  0  0  0  0  0  0  0
   -0.2345    0.2964    0.2193 H   0  0  0  0  0  0  0  0  0  0  0  0
    0.9747    1.5945    0.0752 H   0  0  0  0  0  0  0  0  0  0  0  0
   -1.9017    1.7207   -0.9385 H   0  0  0  0  0  0  0  0  0  0  0  0
   -0.6924    3.0189   -1.0826 H   0  0  0  0  0  0  0  0  0  0  0  0
   -2.6275   -0.6091   -2.5926 H   0  0  0  0  0  0  0  0  0  0  0  0
   -0.5985    4.0253   -5.8853 H   0  0  0  0  0  0  0  0  0  0  0  0
    3.5931    5.6412   -6.6565 H   0  0  0  0  0  0  0  0  0  0  0  0
    0.7189    8.0703   -4.6435 H   0  0  0  0  0  0  0  0  0  0  0  0
  1  2  1  0        0
  1 27  1  0        0
  1 28  1  0        0
  1 29  1  0        0
  2  3  1  0        0
  2 30  1  0        0
  2 31  1  0        0
  3  4  1  0        0
  3 32  1  0        0
  3 33  1  0        0
  4  5  1  0        0
  4 34  1  0        0
  4 35  1  0        0
  5  6  1  0        0
  6 15  2  0        0
  6  7  1  0        0
  7 12  2  0        0
  7  8  1  0        0
  8  9  2  0        0
  8 36  1  0        0
  9 10  1  0        0
 10 11  1  0        0
 10 12  1  0        0
 12 13  1  0        0
 13 14  2  0        0
 14 15  1  0        0
 14 37  1  0        0
 15 16  1  0        0
 16 17  2  0        0
 16 18  1  0        0
 18 23  2  0        0
 18 19  1  0        0
 19 20  2  0        0
 19 26  1  0        0
 20 21  1  0        0
 20 38  1  0        0
 21 22  2  0        0
 21 25  1  0        0
 22 23  1  0        0
 22 39  1  0        0
 23 24  1  0        0
M  END
>  <MolfileName> (51)
ZINC03814465

$$$$
ZINC03814467
csCF1202/ 12301312233D

 29 31  0  0  0  0  0  0  0  0999 V2000
    0.1620    1.2786    0.0233 C   0  0  0  0  0  0  0  0  0  0  0  0
   -0.2668    1.8897    1.2418 O   0  0  0  0  0  0  0  0  0  0  0  0
   -0.3564    1.0879    2.3364 C   0  0  0  0  0  0  0  0  0  0  0  0
   -0.0372   -0.2607    2.2380 C   0  0  0  0  0  0  0  0  0  0  0  0
   -0.1235   -1.0847    3.3412 C   0  0  0  0  0  0  0  0  0  0  0  0
   -0.5327   -0.5715    4.5671 C   0  0  0  0  0  0  0  0  0  0  0  0
   -0.8542    0.7887    4.6651 C   0  0  0  0  0  0  0  0  0  0  0  0
   -0.7600    1.6164    3.5507 C   0  0  0  0  0  0  0  0  0  0  0  0
   -1.2466    1.0245    6.0725 C   0  0  0  0  0  0  0  0  0  0  0  0
   -1.6464    2.2161    6.6442 C   0  0  0  0  0  0  0  0  0  0  0  0
   -1.9219    2.2779    8.0273 C   0  0  0  0  0  0  0  0  0  0  0  0
   -3.0029    2.8935    8.6343 C   0  0  0  0  0  0  0  0  0  0  0  0
   -2.8817    2.7131    9.9485 N   0  0  0  0  0  0  0  0  0  0  0  0
   -1.7926    2.0340   10.2051 C   0  0  0  0  0  0  0  0  0  0  0  0
   -1.1635    1.7406    9.0516 N   0  0  0  0  0  0  0  0  0  0  0  0
   -0.3090    1.2304    8.9538 H   0  0  0  0  0  0  0  0  0  0  0  0
   -1.1194   -0.2832    6.7295 C   0  0  0  0  0  0  0  0  0  0  0  0
   -1.3518   -0.5210    7.9015 O   0  0  0  0  0  0  0  0  0  0  0  0
   -0.7026   -1.1713    5.8112 N   0  0  0  0  0  0  0  0  0  0  0  0
   -0.5343    0.4859   -0.2504 H   0  0  0  0  0  0  0  0  0  0  0  0
    1.1577    0.8564    0.1594 H   0  0  0  0  0  0  0  0  0  0  0  0
    0.1899    2.0272   -0.7685 H   0  0  0  0  0  0  0  0  0  0  0  0
    0.2815   -0.6676    1.2897 H   0  0  0  0  0  0  0  0  0  0  0  0
    0.1272   -2.1315    3.2524 H   0  0  0  0  0  0  0  0  0  0  0  0
   -1.0045    2.6652    3.6317 H   0  0  0  0  0  0  0  0  0  0  0  0
   -1.7482    3.1008    6.0333 H   0  0  0  0  0  0  0  0  0  0  0  0
   -3.8006    3.4220    8.1335 H   0  0  0  0  0  0  0  0  0  0  0  0
   -1.4510    1.7528   11.1903 H   0  0  0  0  0  0  0  0  0  0  0  0
   -0.5411   -2.1105    5.9924 H   0  0  0  0  0  0  0  0  0  0  0  0
  1  2  1  0        0
  1 20  1  0        0
  1 21  1  0        0
  1 22  1  0        0
  2  3  1  0        0
  3  8  2  0        0
  3  4  1  0        0
  4  5  2  0        0
  4 23  1  0        0
  5  6  1  0        0
  5 24  1  0        0
  6 19  1  0        0
  6  7  2  0        0
  7  8  1  0        0
  7  9  1  0        0
  8 25  1  0        0
  9 10  2  0        0
  9 17  1  0        0
 10 11  1  0        0
 10 26  1  0        0
 11 15  1  0        0
 11 12  2  0        0
 12 13  1  0        0
 12 27  1  0        0
 13 14  2  0        0
 14 15  1  0        0
 14 28  1  0        0
 15 16  1  0        0
 17 18  2  0        0
 17 19  1  0        0
 19 29  1  0        0
M  END
>  <MolfileName> (52)
ZINC03814467

$$$$
ZINC03814467
csCF1202/ 12301312233D

 30 32  0  0  0  0  0  0  0  0999 V2000
    0.1620    1.2786    0.0233 C   0  0  0  0  0  0  0  0  0  0  0  0
   -0.2668    1.8897    1.2418 O   0  0  0  0  0  0  0  0  0  0  0  0
   -0.3564    1.0879    2.3364 C   0  0  0  0  0  0  0  0  0  0  0  0
   -0.0372   -0.2607    2.2380 C   0  0  0  0  0  0  0  0  0  0  0  0
   -0.1235   -1.0847    3.3412 C   0  0  0  0  0  0  0  0  0  0  0  0
   -0.5327   -0.5715    4.5671 C   0  0  0  0  0  0  0  0  0  0  0  0
   -0.8542    0.7887    4.6651 C   0  0  0  0  0  0  0  0  0  0  0  0
   -0.7600    1.6164    3.5507 C   0  0  0  0  0  0  0  0  0  0  0  0
   -1.2466    1.0245    6.0725 C   0  0  0  0  0  0  0  0  0  0  0  0
   -1.6464    2.2161    6.6442 C   0  0  0  0  0  0  0  0  0  0  0  0
   -1.9219    2.2779    8.0273 C   0  0  0  0  0  0  0  0  0  0  0  0
   -3.0029    2.8935    8.6343 C   0  0  0  0  0  0  0  0  0  0  0  0
   -1.7926    2.0340   10.2051 C   0  0  0  0  0  0  0  0  0  0  0  0
   -1.1635    1.7406    9.0516 N   0  0  0  0  0  0  0  0  0  0  0  0
   -0.3090    1.2304    8.9538 H   0  0  0  0  0  0  0  0  0  0  0  0
   -1.1194   -0.2832    6.7295 C   0  0  0  0  0  0  0  0  0  0  0  0
   -1.3518   -0.5210    7.9015 O   0  0  0  0  0  0  0  0  0  0  0  0
   -0.7026   -1.1713    5.8112 N   0  0  0  0  0  0  0  0  0  0  0  0
   -0.5343    0.4859   -0.2504 H   0  0  0  0  0  0  0  0  0  0  0  0
    1.1577    0.8564    0.1594 H   0  0  0  0  0  0  0  0  0  0  0  0
    0.1899    2.0272   -0.7685 H   0  0  0  0  0  0  0  0  0  0  0  0
    0.2815   -0.6676    1.2897 H   0  0  0  0  0  0  0  0  0  0  0  0
    0.1272   -2.1315    3.2524 H   0  0  0  0  0  0  0  0  0  0  0  0
   -1.0045    2.6652    3.6317 H   0  0  0  0  0  0  0  0  0  0  0  0
   -1.7482    3.1008    6.0333 H   0  0  0  0  0  0  0  0  0  0  0  0
   -3.8006    3.4220    8.1335 H   0  0  0  0  0  0  0  0  0  0  0  0
   -1.4510    1.7528   11.1903 H   0  0  0  0  0  0  0  0  0  0  0  0
   -0.5411   -2.1105    5.9924 H   0  0  0  0  0  0  0  0  0  0  0  0
   -2.8832    2.7139    9.9501 N   0  3  0  0  0  0  0  0  0  0  0  0
   -3.5452    3.0564   10.6563 H   0  0  0  0  0  0  0  0  0  0  0  0
  1  2  1  0        0
  1 19  1  0        0
  1 20  1  0        0
  1 21  1  0        0
  2  3  1  0        0
  3  8  2  0        0
  3  4  1  0        0
  4  5  2  0        0
  4 22  1  0        0
  5  6  1  0        0
  5 23  1  0        0
  6 18  1  0        0
  6  7  2  0        0
  7  8  1  0        0
  7  9  1  0        0
  8 24  1  0        0
  9 10  2  0        0
  9 16  1  0        0
 10 11  1  0        0
 10 25  1  0        0
 11 14  1  0        0
 11 12  2  0        0
 12 26  1  0        0
 12 29  1  0        0
 13 14  1  0        0
 13 27  1  0        0
 13 29  2  0        0
 14 15  1  0        0
 16 17  2  0        0
 16 18  1  0        0
 18 28  1  0        0
 29 30  1  0        0
M  CHG  1  29   1
M  END
>  <MolfileName> (53)
ZINC03814467

$$$$
ZINC03814468
csCF1202/ 12301312233D

 37 40  0  0  0  0  0  0  0  0999 V2000
   -5.5873   -2.7290    0.3211 C   0  0  0  0  0  0  0  0  0  0  0  0
   -4.7468   -1.5737    0.3513 O   0  0  0  0  0  0  0  0  0  0  0  0
   -3.4226   -1.7671    0.1098 C   0  0  0  0  0  0  0  0  0  0  0  0
   -2.9432   -3.0447   -0.1514 C   0  0  0  0  0  0  0  0  0  0  0  0
   -1.6021   -3.2542   -0.3984 C   0  0  0  0  0  0  0  0  0  0  0  0
   -0.7137   -2.1846   -0.3883 C   0  0  0  0  0  0  0  0  0  0  0  0
   -1.1984   -0.8967   -0.1247 C   0  0  0  0  0  0  0  0  0  0  0  0
   -2.5518   -0.6909    0.1237 C   0  0  0  0  0  0  0  0  0  0  0  0
   -0.0298    0.0095   -0.1839 C   0  0  0  0  0  0  0  0  0  0  0  0
   -0.0166    1.3763    0.0096 C   0  0  0  0  0  0  0  0  0  0  0  0
    1.2124    2.0687    0.0723 C   0  0  0  0  0  0  0  0  0  0  0  0
    1.4458    3.3358   -0.3813 C   0  0  0  0  0  0  0  0  0  0  0  0
    2.8134    3.6232   -0.1125 C   0  0  0  0  0  0  0  0  0  0  0  0
    3.3574    2.5226    0.4858 C   0  0  0  0  0  0  0  0  0  0  0  0
    2.3971    1.5816    0.5994 N   0  0  0  0  0  0  0  0  0  0  0  0
    2.5175    0.7017    0.9895 H   0  0  0  0  0  0  0  0  0  0  0  0
    3.3897    4.9313   -0.4882 C   0  0  0  0  0  0  0  0  0  0  0  0
    4.4925    5.2948   -0.1294 O   0  0  0  0  0  0  0  0  0  0  0  0
    2.5792    5.6896   -1.2873 O   0  0  0  0  0  0  0  0  0  0  0  0
    1.1756    5.7278   -0.9091 C   0  0  0  0  0  0  0  0  0  0  0  0
    0.5373    4.3381   -1.0428 C   0  0  0  0  0  0  0  0  0  0  0  0
    1.1124   -0.8592   -0.4995 C   0  0  0  0  0  0  0  0  0  0  0  0
    2.2677   -0.4994   -0.6410 O   0  0  0  0  0  0  0  0  0  0  0  0
    0.6600   -2.1204   -0.6017 N   0  0  0  0  0  0  0  0  0  0  0  0
   -5.5338   -3.1916   -0.6644 H   0  0  0  0  0  0  0  0  0  0  0  0
   -5.2530   -3.4413    1.0754 H   0  0  0  0  0  0  0  0  0  0  0  0
   -6.6161   -2.4354    0.5293 H   0  0  0  0  0  0  0  0  0  0  0  0
   -3.6264   -3.8811   -0.1616 H   0  0  0  0  0  0  0  0  0  0  0  0
   -1.2412   -4.2519   -0.6003 H   0  0  0  0  0  0  0  0  0  0  0  0
   -2.9213    0.3035    0.3261 H   0  0  0  0  0  0  0  0  0  0  0  0
   -0.9465    1.9166    0.1086 H   0  0  0  0  0  0  0  0  0  0  0  0
    4.3819    2.4226    0.8127 H   0  0  0  0  0  0  0  0  0  0  0  0
    0.6485    6.4284   -1.5568 H   0  0  0  0  0  0  0  0  0  0  0  0
    1.0923    6.0629    0.1248 H   0  0  0  0  0  0  0  0  0  0  0  0
    0.4194    4.0877   -2.0970 H   0  0  0  0  0  0  0  0  0  0  0  0
   -0.4360    4.3320   -0.5520 H   0  0  0  0  0  0  0  0  0  0  0  0
    1.2188   -2.8874   -0.8024 H   0  0  0  0  0  0  0  0  0  0  0  0
  1  2  1  0        0
  1 25  1  0        0
  1 26  1  0        0
  1 27  1  0        0
  2  3  1  0        0
  3  8  2  0        0
  3  4  1  0        0
  4  5  2  0        0
  4 28  1  0        0
  5  6  1  0        0
  5 29  1  0        0
  6 24  1  0        0
  6  7  2  0        0
  7  8  1  0        0
  7  9  1  0        0
  8 30  1  0        0
  9 10  2  0        0
  9 22  1  0        0
 10 11  1  0        0
 10 31  1  0        0
 11 15  1  0        0
 11 12  2  0        0
 12 21  1  0        0
 12 13  1  0        0
 13 14  2  0        0
 13 17  1  0        0
 14 15  1  0        0
 14 32  1  0        0
 15 16  1  0        0
 17 18  2  0        0
 17 19  1  0        0
 19 20  1  0        0
 20 21  1  0        0
 20 33  1  0        0
 20 34  1  0        0
 21 35  1  0        0
 21 36  1  0        0
 22 23  2  0        0
 22 24  1  0        0
 24 37  1  0        0
M  END
>  <MolfileName> (54)
ZINC03814468

$$$$
ZINC03814469
csCF1202/ 12301312233D

 42 45  0  0  0  0  0  0  0  0999 V2000
    4.8258    3.9865   -3.6017 C   0  0  0  0  0  0  0  0  0  0  0  0
    5.1349    2.8189   -2.7727 N   0  0  0  0  0  0  0  0  0  0  0  0
    4.9967    2.9131   -1.1252 S   0  0  0  0  0  0  0  0  0  0  0  0
    5.6785    4.0947   -0.7274 O   0  0  0  0  0  0  0  0  0  0  0  0
    5.3344    1.6305   -0.6153 O   0  0  0  0  0  0  0  0  0  0  0  0
    3.2921    3.1678   -0.7591 C   0  0  0  0  0  0  0  0  0  0  0  0
    2.7889    4.4552   -0.6690 C   0  0  0  0  0  0  0  0  0  0  0  0
    1.4563    4.6709   -0.3826 C   0  0  0  0  0  0  0  0  0  0  0  0
    0.6024    3.5919   -0.1808 C   0  0  0  0  0  0  0  0  0  0  0  0
    1.1153    2.2910   -0.2729 C   0  0  0  0  0  0  0  0  0  0  0  0
    2.4603    2.0843   -0.5621 C   0  0  0  0  0  0  0  0  0  0  0  0
   -0.0187    1.3763   -0.0132 C   0  0  0  0  0  0  0  0  0  0  0  0
    0.0021   -0.0041    0.0020 C   0  0  0  0  0  0  0  0  0  0  0  0
   -1.2053   -0.7271    0.1162 C   0  0  0  0  0  0  0  0  0  0  0  0
   -1.3729   -1.9141    0.7678 C   0  0  0  0  0  0  0  0  0  0  0  0
   -2.7433   -2.2743    0.6264 C   0  0  0  0  0  0  0  0  0  0  0  0
   -3.3528   -1.2931   -0.1010 C   0  0  0  0  0  0  0  0  0  0  0  0
   -2.4323   -0.3549   -0.4081 N   0  0  0  0  0  0  0  0  0  0  0  0
   -2.6028    0.4527   -0.9177 H   0  0  0  0  0  0  0  0  0  0  0  0
   -3.2443   -3.5268    1.2236 C   0  0  0  0  0  0  0  0  0  0  0  0
   -4.3393   -3.9758    0.9440 O   0  0  0  0  0  0  0  0  0  0  0  0
   -2.4214   -4.1498    2.0996 N   0  0  0  0  0  0  0  0  0  0  0  0
   -1.1912   -3.5546    2.5992 C   0  0  0  0  0  0  0  0  0  0  0  0
   -0.4133   -2.7888    1.5279 C   0  0  0  0  0  0  0  0  0  0  0  0
   -1.1730    2.2554    0.2186 C   0  0  0  0  0  0  0  0  0  0  0  0
   -2.3099    1.8941    0.4649 O   0  0  0  0  0  0  0  0  0  0  0  0
   -0.7538    3.5279    0.1144 N   0  0  0  0  0  0  0  0  0  0  0  0
    3.7890    4.2820   -3.4409 H   0  0  0  0  0  0  0  0  0  0  0  0
    5.4849    4.8106   -3.3289 H   0  0  0  0  0  0  0  0  0  0  0  0
    4.9733    3.7357   -4.6521 H   0  0  0  0  0  0  0  0  0  0  0  0
    5.4206    1.9906   -3.1889 H   0  0  0  0  0  0  0  0  0  0  0  0
    3.4459    5.2982   -0.8240 H   0  0  0  0  0  0  0  0  0  0  0  0
    1.0758    5.6794   -0.3153 H   0  0  0  0  0  0  0  0  0  0  0  0
    2.8519    1.0802   -0.6319 H   0  0  0  0  0  0  0  0  0  0  0  0
    0.9419   -0.5308   -0.0734 H   0  0  0  0  0  0  0  0  0  0  0  0
   -4.3957   -1.2697   -0.3804 H   0  0  0  0  0  0  0  0  0  0  0  0
   -2.6636   -5.0366    2.4092 H   0  0  0  0  0  0  0  0  0  0  0  0
   -0.5549   -4.3461    2.9952 H   0  0  0  0  0  0  0  0  0  0  0  0
   -1.4380   -2.8690    3.4098 H   0  0  0  0  0  0  0  0  0  0  0  0
    0.0585   -3.4945    0.8440 H   0  0  0  0  0  0  0  0  0  0  0  0
    0.3505   -2.1703    1.9992 H   0  0  0  0  0  0  0  0  0  0  0  0
   -1.3261    4.3030    0.2268 H   0  0  0  0  0  0  0  0  0  0  0  0
  1  2  1  0        0
  1 28  1  0        0
  1 29  1  0        0
  1 30  1  0        0
  2  3  1  0        0
  2 31  1  0        0
  3  4  2  0        0
  3  5  2  0        0
  3  6  1  0        0
  6 11  2  0        0
  6  7  1  0        0
  7  8  2  0        0
  7 32  1  0        0
  8  9  1  0        0
  8 33  1  0        0
  9 27  1  0        0
  9 10  2  0        0
 10 11  1  0        0
 10 12  1  0        0
 11 34  1  0        0
 12 13  2  0        0
 12 25  1  0        0
 13 14  1  0        0
 13 35  1  0        0
 14 18  1  0        0
 14 15  2  0        0
 15 24  1  0        0
 15 16  1  0        0
 16 17  2  0        0
 16 20  1  0        0
 17 18  1  0        0
 17 36  1  0        0
 18 19  1  0        0
 20 21  2  0        0
 20 22  1  0        0
 22 23  1  0        0
 22 37  1  0        0
 23 24  1  0        0
 23 38  1  0        0
 23 39  1  0        0
 24 40  1  0        0
 24 41  1  0        0
 25 26  2  0        0
 25 27  1  0        0
 27 42  1  0        0
M  END
>  <MolfileName> (55)
ZINC03814469

$$$$
ZINC03814470
csCF1202/ 12301312233D

 32 34  0  0  0  0  0  0  0  0999 V2000
   -6.3953   -1.1499   -1.9700 C   0  0  0  0  0  0  0  0  0  0  0  0
   -5.1187   -0.9066   -1.3758 O   0  0  0  0  0  0  0  0  0  0  0  0
   -4.5322   -1.9454   -0.7289 C   0  0  0  0  0  0  0  0  0  0  0  0
   -5.0511   -3.2392   -0.5852 C   0  0  0  0  0  0  0  0  0  0  0  0
   -4.1636   -3.9706    0.1298 C   0  0  0  0  0  0  0  0  0  0  0  0
   -3.0947   -3.1945    0.4433 N   0  0  0  0  0  0  0  0  0  0  0  0
   -2.3187   -3.4786    0.9514 H   0  0  0  0  0  0  0  0  0  0  0  0
   -3.2970   -1.9303   -0.0824 C   0  0  0  0  0  0  0  0  0  0  0  0
   -2.4248   -0.8362    0.0211 C   0  0  0  0  0  0  0  0  0  0  0  0
   -1.0533   -1.0396    0.0115 C   0  0  0  0  0  0  0  0  0  0  0  0
    0.0000   -0.0332    0.2626 C   0  0  0  0  0  0  0  0  0  0  0  0
   -0.0213    1.3246    0.5637 C   0  0  0  0  0  0  0  0  0  0  0  0
    1.1667    2.0030    0.7455 C   0  0  0  0  0  0  0  0  0  0  0  0
    2.3747    1.3348    0.6300 C   0  0  0  0  0  0  0  0  0  0  0  0
    2.4071   -0.0124    0.3307 C   0  0  0  0  0  0  0  0  0  0  0  0
    1.2217   -0.7117    0.1439 C   0  0  0  0  0  0  0  0  0  0  0  0
    0.9545   -2.0408   -0.1584 N   0  0  0  0  0  0  0  0  0  0  0  0
   -0.3687   -2.2587   -0.2414 C   0  0  0  0  0  0  0  0  0  0  0  0
   -0.8961   -3.3285   -0.4925 O   0  0  0  0  0  0  0  0  0  0  0  0
    1.1500    3.4481    1.0656 N   0  3  0  0  0  0  0  0  0  0  0  0
    0.0887    4.0370    1.1682 O   0  0  0  0  0  0  0  0  0  0  0  0
    2.1975    4.0484    1.2264 O   0  5  0  0  0  0  0  0  0  0  0  0
   -6.7505   -0.2397   -2.4532 H   0  0  0  0  0  0  0  0  0  0  0  0
   -6.3055   -1.9436   -2.7117 H   0  0  0  0  0  0  0  0  0  0  0  0
   -7.1036   -1.4519   -1.1985 H   0  0  0  0  0  0  0  0  0  0  0  0
   -5.9959   -3.5903   -0.9730 H   0  0  0  0  0  0  0  0  0  0  0  0
   -4.2867   -5.0072    0.4067 H   0  0  0  0  0  0  0  0  0  0  0  0
   -2.8218    0.1644    0.1083 H   0  0  0  0  0  0  0  0  0  0  0  0
   -0.9629    1.8464    0.6503 H   0  0  0  0  0  0  0  0  0  0  0  0
    3.2998    1.8732    0.7745 H   0  0  0  0  0  0  0  0  0  0  0  0
    3.3547   -0.5229    0.2421 H   0  0  0  0  0  0  0  0  0  0  0  0
    1.6329   -2.7212   -0.2917 H   0  0  0  0  0  0  0  0  0  0  0  0
  1  2  1  0        0
  1 23  1  0        0
  1 24  1  0        0
  1 25  1  0        0
  2  3  1  0        0
  3  8  2  0        0
  3  4  1  0        0
  4  5  2  0        0
  4 26  1  0        0
  5  6  1  0        0
  5 27  1  0        0
  6  7  1  0        0
  6  8  1  0        0
  8  9  1  0        0
  9 10  2  0        0
  9 28  1  0        0
 10 18  1  0        0
 10 11  1  0        0
 11 16  2  0        0
 11 12  1  0        0
 12 13  2  0        0
 12 29  1  0        0
 13 14  1  0        0
 13 20  1  0        0
 14 15  2  0        0
 14 30  1  0        0
 15 16  1  0        0
 15 31  1  0        0
 16 17  1  0        0
 17 18  1  0        0
 17 32  1  0        0
 18 19  2  0        0
 20 21  2  0        0
 20 22  1  0        0
M  CHG  2  20   1  22  -1
M  END
>  <MolfileName> (56)
ZINC03814470

$$$$
ZINC03814473
csCF1202/ 12301312233D

 38 41  0  0  0  0  0  0  0  0999 V2000
   -0.0169    1.3972    0.0097 C   0  0  0  0  0  0  0  0  0  0  0  0
    0.0021   -0.0041    0.0020 C   0  0  0  0  0  0  0  0  0  0  0  0
    1.3117   -0.3924   -0.0126 C   0  0  0  0  0  0  0  0  0  0  0  0
    2.0860    0.7419   -0.0139 N   0  0  0  0  0  0  0  0  0  0  0  0
    3.0557    0.7654   -0.0227 H   0  0  0  0  0  0  0  0  0  0  0  0
    1.2657    1.8270   -0.0002 C   0  0  0  0  0  0  0  0  0  0  0  0
    1.8053   -1.7802   -0.0252 C   0  0  0  0  0  0  0  0  0  0  0  0
    1.1736   -2.7537    0.7607 C   0  0  0  0  0  0  0  0  0  0  0  0
    1.5878   -4.0781    0.7888 C   0  0  0  0  0  0  0  0  0  0  0  0
    2.7353   -4.4613   -0.0281 C   0  0  0  0  0  0  0  0  0  0  0  0
    3.2834   -5.7479   -0.1110 C   0  0  0  0  0  0  0  0  0  0  0  0
    4.3774   -5.9442   -0.9354 C   0  0  0  0  0  0  0  0  0  0  0  0
    4.9546   -4.9223   -1.6835 C   0  0  0  0  0  0  0  0  0  0  0  0
    4.4347   -3.6409   -1.6229 C   0  0  0  0  0  0  0  0  0  0  0  0
    3.3362   -3.4604   -0.7898 C   0  0  0  0  0  0  0  0  0  0  0  0
    2.9106   -2.1225   -0.8197 C   0  0  0  0  0  0  0  0  0  0  0  0
    3.8320   -1.4717   -1.7429 C   0  0  0  0  0  0  0  0  0  0  0  0
    3.8152   -0.2946   -2.0584 O   0  0  0  0  0  0  0  0  0  0  0  0
    4.7124   -2.4044   -2.1912 N   0  0  0  0  0  0  0  0  0  0  0  0
    2.7567   -6.7717    0.5959 F   0  0  0  0  0  0  0  0  0  0  0  0
    0.7540   -5.2649    1.7893 S   0  0  0  0  0  0  0  0  0  0  0  0
   -0.5230   -4.2141    2.5250 C   0  0  0  0  0  0  0  0  0  0  0  0
   -1.3965   -5.0523    3.4606 C   0  0  0  0  0  0  0  0  0  0  0  0
   -0.8978    2.0220    0.0175 H   0  0  0  0  0  0  0  0  0  0  0  0
   -0.8589   -0.6560    0.0073 H   0  0  0  0  0  0  0  0  0  0  0  0
    1.5850    2.8587    0.0020 H   0  0  0  0  0  0  0  0  0  0  0  0
    0.3279   -2.4622    1.3660 H   0  0  0  0  0  0  0  0  0  0  0  0
    4.8027   -6.9348   -1.0009 H   0  0  0  0  0  0  0  0  0  0  0  0
    5.8082   -5.1293   -2.3119 H   0  0  0  0  0  0  0  0  0  0  0  0
    5.4319   -2.2314   -2.8183 H   0  0  0  0  0  0  0  0  0  0  0  0
   -0.0510   -3.4110    3.0910 H   0  0  0  0  0  0  0  0  0  0  0  0
   -1.1416   -3.7873    1.7356 H   0  0  0  0  0  0  0  0  0  0  0  0
   -1.8685   -5.8554    2.8946 H   0  0  0  0  0  0  0  0  0  0  0  0
   -0.7779   -5.4791    4.2501 H   0  0  0  0  0  0  0  0  0  0  0  0
   -2.9794   -3.7411    3.3441 H   0  0  0  0  0  0  0  0  0  0  0  0
   -3.0235   -4.7302    4.6803 H   0  0  0  0  0  0  0  0  0  0  0  0
   -2.4183   -4.1831    4.0703 N   0  3  0  0  0  0  0  0  0  0  0  0
   -1.9541   -3.4544    4.6251 H   0  0  0  0  0  0  0  0  0  0  0  0
  1  6  2  0        0
  1  2  1  0        0
  1 24  1  0        0
  2  3  2  0        0
  2 25  1  0        0
  3  4  1  0        0
  3  7  1  0        0
  4  5  1  0        0
  4  6  1  0        0
  6 26  1  0        0
  7 16  2  0        0
  7  8  1  0        0
  8  9  2  0        0
  8 27  1  0        0
  9 10  1  0        0
  9 21  1  0        0
 10 15  2  0        0
 10 11  1  0        0
 11 12  2  0        0
 11 20  1  0        0
 12 13  1  0        0
 12 28  1  0        0
 13 14  2  0        0
 13 29  1  0        0
 14 19  1  0        0
 14 15  1  0        0
 15 16  1  0        0
 16 17  1  0        0
 17 18  2  0        0
 17 19  1  0        0
 19 30  1  0        0
 21 22  1  0        0
 22 23  1  0        0
 22 31  1  0        0
 22 32  1  0        0
 23 33  1  0        0
 23 34  1  0        0
 23 37  1  0        0
 35 37  1  0        0
 36 37  1  0        0
 37 38  1  0        0
M  CHG  1  37   1
M  END
>  <MolfileName> (57)
ZINC03814473

$$$$
ZINC03814475
csCF1202/ 12301312233D

 47 50  0  0  0  0  0  0  0  0999 V2000
   -0.7000    2.8597    1.1339 C   0  0  0  0  0  0  0  0  0  0  0  0
   -1.1983    2.0104    0.0438 N   0  0  0  0  0  0  0  0  0  0  0  0
   -1.9656    2.7991   -0.9294 C   0  0  0  0  0  0  0  0  0  0  0  0
   -0.1731    1.3442   -0.5654 N   0  0  0  0  0  0  0  0  0  0  0  0
   -0.1601   -0.0034   -0.5810 C   0  0  0  0  0  0  0  0  0  0  0  0
    0.7497   -0.5963   -1.1276 O   0  0  0  0  0  0  0  0  0  0  0  0
   -1.1558   -0.6938    0.0094 N   0  0  0  0  0  0  0  0  0  0  0  0
   -1.1928   -2.0820   -0.0873 C   0  0  0  0  0  0  0  0  0  0  0  0
   -0.0085   -2.8123   -0.1024 C   0  0  0  0  0  0  0  0  0  0  0  0
   -0.0422   -4.1884   -0.1918 C   0  0  0  0  0  0  0  0  0  0  0  0
   -1.2518   -4.8583   -0.2801 C   0  0  0  0  0  0  0  0  0  0  0  0
   -2.4462   -4.1500   -0.2727 C   0  0  0  0  0  0  0  0  0  0  0  0
   -2.4219   -2.7475   -0.1755 C   0  0  0  0  0  0  0  0  0  0  0  0
   -3.8102   -2.2439   -0.1895 C   0  0  0  0  0  0  0  0  0  0  0  0
   -4.1515   -1.0781   -0.1210 O   0  0  0  0  0  0  0  0  0  0  0  0
   -4.7049   -3.4039   -0.3004 C   0  0  0  0  0  0  0  0  0  0  0  0
   -3.8585   -4.5987   -0.3528 C   0  0  0  0  0  0  0  0  0  0  0  0
   -4.6533   -5.6355   -0.4514 N   0  0  0  0  0  0  0  0  0  0  0  0
   -5.9835   -5.2046   -0.4681 N   0  0  0  0  0  0  0  0  0  0  0  0
   -6.7836   -5.8005   -0.5367 H   0  0  0  0  0  0  0  0  0  0  0  0
   -6.0188   -3.8455   -0.3762 C   0  0  0  0  0  0  0  0  0  0  0  0
   -7.2280   -3.0006   -0.3608 C   0  0  0  0  0  0  0  0  0  0  0  0
   -7.3459   -1.9624    0.5675 C   0  0  0  0  0  0  0  0  0  0  0  0
   -8.4749   -1.1733    0.5755 C   0  0  0  0  0  0  0  0  0  0  0  0
   -9.5001   -1.4145   -0.3308 C   0  0  0  0  0  0  0  0  0  0  0  0
   -9.3892   -2.4486   -1.2523 C   0  0  0  0  0  0  0  0  0  0  0  0
   -8.2617   -3.2397   -1.2706 C   0  0  0  0  0  0  0  0  0  0  0  0
  -10.6137   -0.6377   -0.3157 O   0  0  0  0  0  0  0  0  0  0  0  0
  -10.6624    0.4076    0.6574 C   0  0  0  0  0  0  0  0  0  0  0  0
    0.0023    3.5906    0.7330 H   0  0  0  0  0  0  0  0  0  0  0  0
   -1.5367    3.3786    1.6017 H   0  0  0  0  0  0  0  0  0  0  0  0
   -0.1960    2.2403    1.8758 H   0  0  0  0  0  0  0  0  0  0  0  0
   -2.3816    2.1355   -1.6876 H   0  0  0  0  0  0  0  0  0  0  0  0
   -2.7755    3.3192   -0.4178 H   0  0  0  0  0  0  0  0  0  0  0  0
   -1.3091    3.5277   -1.4050 H   0  0  0  0  0  0  0  0  0  0  0  0
    0.5435    1.8411   -0.9903 H   0  0  0  0  0  0  0  0  0  0  0  0
   -1.8467   -0.2233    0.5016 H   0  0  0  0  0  0  0  0  0  0  0  0
    0.9403   -2.3002   -0.0389 H   0  0  0  0  0  0  0  0  0  0  0  0
    0.8817   -4.7477   -0.1975 H   0  0  0  0  0  0  0  0  0  0  0  0
   -1.2658   -5.9357   -0.3546 H   0  0  0  0  0  0  0  0  0  0  0  0
   -6.5513   -1.7768    1.2751 H   0  0  0  0  0  0  0  0  0  0  0  0
   -8.5651   -0.3685    1.2901 H   0  0  0  0  0  0  0  0  0  0  0  0
  -10.1885   -2.6326   -1.9550 H   0  0  0  0  0  0  0  0  0  0  0  0
   -8.1767   -4.0436   -1.9867 H   0  0  0  0  0  0  0  0  0  0  0  0
  -11.6029    0.9501    0.5611 H   0  0  0  0  0  0  0  0  0  0  0  0
  -10.5918   -0.0225    1.6565 H   0  0  0  0  0  0  0  0  0  0  0  0
   -9.8298    1.0925    0.4969 H   0  0  0  0  0  0  0  0  0  0  0  0
  1  2  1  0        0
  1 30  1  0        0
  1 31  1  0        0
  1 32  1  0        0
  2  3  1  0        0
  2  4  1  0        0
  3 33  1  0        0
  3 34  1  0        0
  3 35  1  0        0
  4  5  1  0        0
  4 36  1  0        0
  5  6  2  0        0
  5  7  1  0        0
  7  8  1  0        0
  7 37  1  0        0
  8 13  2  0        0
  8  9  1  0        0
  9 10  2  0        0
  9 38  1  0        0
 10 11  1  0        0
 10 39  1  0        0
 11 12  2  0        0
 11 40  1  0        0
 12 17  1  0        0
 12 13  1  0        0
 13 14  1  0        0
 14 15  2  0        0
 14 16  1  0        0
 16 21  2  0        0
 16 17  1  0        0
 17 18  2  0        0
 18 19  1  0        0
 19 20  1  0        0
 19 21  1  0        0
 21 22  1  0        0
 22 27  2  0        0
 22 23  1  0        0
 23 24  2  0        0
 23 41  1  0        0
 24 25  1  0        0
 24 42  1  0        0
 25 26  2  0        0
 25 28  1  0        0
 26 27  1  0        0
 26 43  1  0        0
 27 44  1  0        0
 28 29  1  0        0
 29 45  1  0        0
 29 46  1  0        0
 29 47  1  0        0
M  END
>  <MolfileName> (58)
ZINC03814475

$$$$
ZINC03814475
csCF1202/ 12301312233D

 47 50  0  0  0  0  0  0  0  0999 V2000
   -0.7000    2.8597    1.1339 C   0  0  0  0  0  0  0  0  0  0  0  0
   -1.1983    2.0104    0.0438 N   0  0  0  0  0  0  0  0  0  0  0  0
   -1.9656    2.7991   -0.9294 C   0  0  0  0  0  0  0  0  0  0  0  0
   -0.1731    1.3442   -0.5654 N   0  0  0  0  0  0  0  0  0  0  0  0
   -0.1601   -0.0034   -0.5810 C   0  0  0  0  0  0  0  0  0  0  0  0
    0.7497   -0.5963   -1.1276 O   0  0  0  0  0  0  0  0  0  0  0  0
   -1.1558   -0.6938    0.0094 N   0  0  0  0  0  0  0  0  0  0  0  0
   -1.1928   -2.0820   -0.0873 C   0  0  0  0  0  0  0  0  0  0  0  0
   -0.0085   -2.8123   -0.1024 C   0  0  0  0  0  0  0  0  0  0  0  0
   -0.0422   -4.1884   -0.1918 C   0  0  0  0  0  0  0  0  0  0  0  0
   -1.2518   -4.8583   -0.2801 C   0  0  0  0  0  0  0  0  0  0  0  0
   -2.4462   -4.1500   -0.2727 C   0  0  0  0  0  0  0  0  0  0  0  0
   -2.4219   -2.7475   -0.1755 C   0  0  0  0  0  0  0  0  0  0  0  0
   -3.8102   -2.2439   -0.1895 C   0  0  0  0  0  0  0  0  0  0  0  0
   -4.1515   -1.0781   -0.1210 O   0  0  0  0  0  0  0  0  0  0  0  0
   -4.7049   -3.4039   -0.3004 C   0  0  0  0  0  0  0  0  0  0  0  0
   -3.8585   -4.5987   -0.3528 C   0  0  0  0  0  0  0  0  0  0  0  0
   -4.6533   -5.6355   -0.4514 N   0  0  0  0  0  0  0  0  0  0  0  0
   -5.9835   -5.2046   -0.4681 N   0  0  0  0  0  0  0  0  0  0  0  0
   -6.7836   -5.8005   -0.5367 H   0  0  0  0  0  0  0  0  0  0  0  0
   -6.0188   -3.8455   -0.3762 C   0  0  0  0  0  0  0  0  0  0  0  0
   -7.2280   -3.0006   -0.3608 C   0  0  0  0  0  0  0  0  0  0  0  0
   -7.3459   -1.9624    0.5675 C   0  0  0  0  0  0  0  0  0  0  0  0
   -8.4749   -1.1733    0.5755 C   0  0  0  0  0  0  0  0  0  0  0  0
   -9.5001   -1.4145   -0.3308 C   0  0  0  0  0  0  0  0  0  0  0  0
   -9.3892   -2.4486   -1.2523 C   0  0  0  0  0  0  0  0  0  0  0  0
   -8.2617   -3.2397   -1.2706 C   0  0  0  0  0  0  0  0  0  0  0  0
  -10.6137   -0.6377   -0.3157 O   0  0  0  0  0  0  0  0  0  0  0  0
  -10.6624    0.4076    0.6574 C   0  0  0  0  0  0  0  0  0  0  0  0
    0.0023    3.5906    0.7330 H   0  0  0  0  0  0  0  0  0  0  0  0
   -1.5367    3.3786    1.6017 H   0  0  0  0  0  0  0  0  0  0  0  0
   -0.1960    2.2403    1.8758 H   0  0  0  0  0  0  0  0  0  0  0  0
   -2.3816    2.1355   -1.6876 H   0  0  0  0  0  0  0  0  0  0  0  0
   -2.7755    3.3192   -0.4178 H   0  0  0  0  0  0  0  0  0  0  0  0
   -1.3091    3.5277   -1.4050 H   0  0  0  0  0  0  0  0  0  0  0  0
    0.5435    1.8411   -0.9903 H   0  0  0  0  0  0  0  0  0  0  0  0
   -1.8467   -0.2233    0.5016 H   0  0  0  0  0  0  0  0  0  0  0  0
    0.9403   -2.3002   -0.0389 H   0  0  0  0  0  0  0  0  0  0  0  0
    0.8817   -4.7477   -0.1975 H   0  0  0  0  0  0  0  0  0  0  0  0
   -1.2658   -5.9357   -0.3546 H   0  0  0  0  0  0  0  0  0  0  0  0
   -6.5513   -1.7768    1.2751 H   0  0  0  0  0  0  0  0  0  0  0  0
   -8.5651   -0.3685    1.2901 H   0  0  0  0  0  0  0  0  0  0  0  0
  -10.1885   -2.6326   -1.9550 H   0  0  0  0  0  0  0  0  0  0  0  0
   -8.1767   -4.0436   -1.9867 H   0  0  0  0  0  0  0  0  0  0  0  0
  -11.6029    0.9501    0.5611 H   0  0  0  0  0  0  0  0  0  0  0  0
  -10.5918   -0.0225    1.6565 H   0  0  0  0  0  0  0  0  0  0  0  0
   -9.8298    1.0925    0.4969 H   0  0  0  0  0  0  0  0  0  0  0  0
  1  2  1  0        0
  1 30  1  0        0
  1 31  1  0        0
  1 32  1  0        0
  2  3  1  0        0
  2  4  1  0        0
  3 33  1  0        0
  3 34  1  0        0
  3 35  1  0        0
  4  5  1  0        0
  4 36  1  0        0
  5  6  2  0        0
  5  7  1  0        0
  7  8  1  0        0
  7 37  1  0        0
  8 13  2  0        0
  8  9  1  0        0
  9 10  2  0        0
  9 38  1  0        0
 10 11  1  0        0
 10 39  1  0        0
 11 12  2  0        0
 11 40  1  0        0
 12 17  1  0        0
 12 13  1  0        0
 13 14  1  0        0
 14 15  2  0        0
 14 16  1  0        0
 16 21  2  0        0
 16 17  1  0        0
 17 18  2  0        0
 18 19  1  0        0
 19 20  1  0        0
 19 21  1  0        0
 21 22  1  0        0
 22 27  2  0        0
 22 23  1  0        0
 23 24  2  0        0
 23 41  1  0        0
 24 25  1  0        0
 24 42  1  0        0
 25 26  2  0        0
 25 28  1  0        0
 26 27  1  0        0
 26 43  1  0        0
 27 44  1  0        0
 28 29  1  0        0
 29 45  1  0        0
 29 46  1  0        0
 29 47  1  0        0
M  END
>  <MolfileName> (59)
ZINC03814475

$$$$
ZINC03814476
csCF1202/ 12301312233D

 35 38  0  0  0  0  0  0  0  0999 V2000
   -0.1596    1.4979    0.5774 C   0  0  0  0  0  0  0  0  0  0  0  0
   -0.1447   -0.0090    0.5796 C   0  0  0  0  0  0  0  0  0  0  0  0
    0.7771   -0.6056    1.0945 O   0  0  0  0  0  0  0  0  0  0  0  0
   -1.1558   -0.6938    0.0094 N   0  0  0  0  0  0  0  0  0  0  0  0
   -1.0878   -2.0804   -0.0911 C   0  0  0  0  0  0  0  0  0  0  0  0
    0.1484   -2.7208   -0.1047 C   0  0  0  0  0  0  0  0  0  0  0  0
    0.2174   -4.0952   -0.1984 C   0  0  0  0  0  0  0  0  0  0  0  0
   -0.9387   -4.8543   -0.2916 C   0  0  0  0  0  0  0  0  0  0  0  0
   -2.1815   -4.2370   -0.2857 C   0  0  0  0  0  0  0  0  0  0  0  0
   -2.2610   -2.8366   -0.1847 C   0  0  0  0  0  0  0  0  0  0  0  0
   -3.6875   -2.4562   -0.2027 C   0  0  0  0  0  0  0  0  0  0  0  0
   -4.1329   -1.3265   -0.1336 O   0  0  0  0  0  0  0  0  0  0  0  0
   -4.4719   -3.6982   -0.3201 C   0  0  0  0  0  0  0  0  0  0  0  0
   -3.5600   -4.7839   -0.3708 C   0  0  0  0  0  0  0  0  0  0  0  0
   -4.2543   -5.8931   -0.4748 N   0  0  0  0  0  0  0  0  0  0  0  0
   -5.6182   -5.5817   -0.4956 N   0  0  0  0  0  0  0  0  0  0  0  0
   -6.3675   -6.2399   -0.5682 H   0  0  0  0  0  0  0  0  0  0  0  0
   -5.7518   -4.2292   -0.4002 C   0  0  0  0  0  0  0  0  0  0  0  0
   -7.0199   -3.4708   -0.3854 C   0  0  0  0  0  0  0  0  0  0  0  0
   -7.2320   -2.4411    0.5394 C   0  0  0  0  0  0  0  0  0  0  0  0
   -8.4296   -1.7563    0.5146 C   0  0  0  0  0  0  0  0  0  0  0  0
   -9.3696   -2.0666   -0.3571 N   0  0  0  0  0  0  0  0  0  0  0  0
   -9.2131   -3.0320   -1.2422 C   0  0  0  0  0  0  0  0  0  0  0  0
   -8.0454   -3.7655   -1.2920 C   0  0  0  0  0  0  0  0  0  0  0  0
    0.7330    1.8708    1.0798 H   0  0  0  0  0  0  0  0  0  0  0  0
   -0.1756    1.8596   -0.4508 H   0  0  0  0  0  0  0  0  0  0  0  0
   -1.0468    1.8533    1.1014 H   0  0  0  0  0  0  0  0  0  0  0  0
   -1.9310   -0.2203   -0.3310 H   0  0  0  0  0  0  0  0  0  0  0  0
    1.0562   -2.1397   -0.0375 H   0  0  0  0  0  0  0  0  0  0  0  0
    1.1805   -4.5837   -0.2036 H   0  0  0  0  0  0  0  0  0  0  0  0
   -0.8719   -5.9295   -0.3686 H   0  0  0  0  0  0  0  0  0  0  0  0
   -6.4684   -2.1844    1.2587 H   0  0  0  0  0  0  0  0  0  0  0  0
   -8.6013   -0.9579    1.2214 H   0  0  0  0  0  0  0  0  0  0  0  0
  -10.0100   -3.2517   -1.9372 H   0  0  0  0  0  0  0  0  0  0  0  0
   -7.9242   -4.5545   -2.0194 H   0  0  0  0  0  0  0  0  0  0  0  0
  1  2  1  0        0
  1 25  1  0        0
  1 26  1  0        0
  1 27  1  0        0
  2  3  2  0        0
  2  4  1  0        0
  4  5  1  0        0
  4 28  1  0        0
  5 10  2  0        0
  5  6  1  0        0
  6  7  2  0        0
  6 29  1  0        0
  7  8  1  0        0
  7 30  1  0        0
  8  9  2  0        0
  8 31  1  0        0
  9 14  1  0        0
  9 10  1  0        0
 10 11  1  0        0
 11 12  2  0        0
 11 13  1  0        0
 13 18  2  0        0
 13 14  1  0        0
 14 15  2  0        0
 15 16  1  0        0
 16 17  1  0        0
 16 18  1  0        0
 18 19  1  0        0
 19 24  2  0        0
 19 20  1  0        0
 20 21  2  0        0
 20 32  1  0        0
 21 22  1  0        0
 21 33  1  0        0
 22 23  2  0        0
 23 24  1  0        0
 23 34  1  0        0
 24 35  1  0        0
M  END
>  <MolfileName> (60)
ZINC03814476

$$$$
ZINC03814476
csCF1202/ 12301312233D

 35 38  0  0  0  0  0  0  0  0999 V2000
   -0.1596    1.4979    0.5774 C   0  0  0  0  0  0  0  0  0  0  0  0
   -0.1447   -0.0090    0.5796 C   0  0  0  0  0  0  0  0  0  0  0  0
    0.7771   -0.6056    1.0945 O   0  0  0  0  0  0  0  0  0  0  0  0
   -1.1558   -0.6938    0.0094 N   0  0  0  0  0  0  0  0  0  0  0  0
   -1.0878   -2.0804   -0.0911 C   0  0  0  0  0  0  0  0  0  0  0  0
    0.1484   -2.7208   -0.1047 C   0  0  0  0  0  0  0  0  0  0  0  0
    0.2174   -4.0952   -0.1984 C   0  0  0  0  0  0  0  0  0  0  0  0
   -0.9387   -4.8543   -0.2916 C   0  0  0  0  0  0  0  0  0  0  0  0
   -2.1815   -4.2370   -0.2857 C   0  0  0  0  0  0  0  0  0  0  0  0
   -2.2610   -2.8366   -0.1847 C   0  0  0  0  0  0  0  0  0  0  0  0
   -3.6875   -2.4562   -0.2027 C   0  0  0  0  0  0  0  0  0  0  0  0
   -4.1329   -1.3265   -0.1336 O   0  0  0  0  0  0  0  0  0  0  0  0
   -4.4719   -3.6982   -0.3201 C   0  0  0  0  0  0  0  0  0  0  0  0
   -3.5600   -4.7839   -0.3708 C   0  0  0  0  0  0  0  0  0  0  0  0
   -4.2543   -5.8931   -0.4748 N   0  0  0  0  0  0  0  0  0  0  0  0
   -5.6182   -5.5817   -0.4956 N   0  0  0  0  0  0  0  0  0  0  0  0
   -6.3675   -6.2399   -0.5682 H   0  0  0  0  0  0  0  0  0  0  0  0
   -5.7518   -4.2292   -0.4002 C   0  0  0  0  0  0  0  0  0  0  0  0
   -7.0199   -3.4708   -0.3854 C   0  0  0  0  0  0  0  0  0  0  0  0
   -7.2320   -2.4411    0.5394 C   0  0  0  0  0  0  0  0  0  0  0  0
   -8.4296   -1.7563    0.5146 C   0  0  0  0  0  0  0  0  0  0  0  0
   -9.3696   -2.0666   -0.3571 N   0  0  0  0  0  0  0  0  0  0  0  0
   -9.2131   -3.0320   -1.2422 C   0  0  0  0  0  0  0  0  0  0  0  0
   -8.0454   -3.7655   -1.2920 C   0  0  0  0  0  0  0  0  0  0  0  0
    0.7330    1.8708    1.0798 H   0  0  0  0  0  0  0  0  0  0  0  0
   -0.1756    1.8596   -0.4508 H   0  0  0  0  0  0  0  0  0  0  0  0
   -1.0468    1.8533    1.1014 H   0  0  0  0  0  0  0  0  0  0  0  0
   -1.9310   -0.2203   -0.3310 H   0  0  0  0  0  0  0  0  0  0  0  0
    1.0562   -2.1397   -0.0375 H   0  0  0  0  0  0  0  0  0  0  0  0
    1.1805   -4.5837   -0.2036 H   0  0  0  0  0  0  0  0  0  0  0  0
   -0.8719   -5.9295   -0.3686 H   0  0  0  0  0  0  0  0  0  0  0  0
   -6.4684   -2.1844    1.2587 H   0  0  0  0  0  0  0  0  0  0  0  0
   -8.6013   -0.9579    1.2214 H   0  0  0  0  0  0  0  0  0  0  0  0
  -10.0100   -3.2517   -1.9372 H   0  0  0  0  0  0  0  0  0  0  0  0
   -7.9242   -4.5545   -2.0194 H   0  0  0  0  0  0  0  0  0  0  0  0
  1  2  1  0        0
  1 25  1  0        0
  1 26  1  0        0
  1 27  1  0        0
  2  3  2  0        0
  2  4  1  0        0
  4  5  1  0        0
  4 28  1  0        0
  5 10  2  0        0
  5  6  1  0        0
  6  7  2  0        0
  6 29  1  0        0
  7  8  1  0        0
  7 30  1  0        0
  8  9  2  0        0
  8 31  1  0        0
  9 14  1  0        0
  9 10  1  0        0
 10 11  1  0        0
 11 12  2  0        0
 11 13  1  0        0
 13 18  2  0        0
 13 14  1  0        0
 14 15  2  0        0
 15 16  1  0        0
 16 17  1  0        0
 16 18  1  0        0
 18 19  1  0        0
 19 24  2  0        0
 19 20  1  0        0
 20 21  2  0        0
 20 32  1  0        0
 21 22  1  0        0
 21 33  1  0        0
 22 23  2  0        0
 23 24  1  0        0
 23 34  1  0        0
 24 35  1  0        0
M  END
>  <MolfileName> (61)
ZINC03814476

$$$$
ZINC03814477
csCF1202/ 12301312233D

 32 35  0  0  0  0  0  0  0  0999 V2000
   -5.0963    8.9571   -2.1167 C   0  0  0  0  0  0  0  0  0  0  0  0
   -4.0460    8.7233   -1.2444 C   0  0  0  0  0  0  0  0  0  0  0  0
   -3.4503    7.4699   -1.1866 C   0  0  0  0  0  0  0  0  0  0  0  0
   -3.9191    6.4380   -2.0189 C   0  0  0  0  0  0  0  0  0  0  0  0
   -4.9820    6.6873   -2.8961 C   0  0  0  0  0  0  0  0  0  0  0  0
   -5.5632    7.9505   -2.9367 C   0  0  0  0  0  0  0  0  0  0  0  0
   -5.4556    5.6737   -3.7251 N   0  0  0  0  0  0  0  0  0  0  0  0
   -6.0865    5.9833   -4.8751 C   0  0  0  0  0  0  0  0  0  0  0  0
   -6.1523    7.1413   -5.2396 O   0  0  0  0  0  0  0  0  0  0  0  0
   -6.6443    5.0093   -5.6211 N   0  0  0  0  0  0  0  0  0  0  0  0
   -3.1233    5.2205   -1.7635 C   0  0  0  0  0  0  0  0  0  0  0  0
   -3.2635    4.1431   -2.3125 O   0  0  0  0  0  0  0  0  0  0  0  0
   -2.1342    5.5419   -0.7300 C   0  0  0  0  0  0  0  0  0  0  0  0
   -2.3317    6.9472   -0.3636 C   0  0  0  0  0  0  0  0  0  0  0  0
   -1.4497    7.2387    0.5598 N   0  0  0  0  0  0  0  0  0  0  0  0
   -0.6736    6.1102    0.8412 N   0  0  0  0  0  0  0  0  0  0  0  0
    0.0650    6.0693    1.5141 H   0  0  0  0  0  0  0  0  0  0  0  0
   -1.0824    5.0726    0.0531 C   0  0  0  0  0  0  0  0  0  0  0  0
   -0.5232    3.7173    0.0385 C   0  0  0  0  0  0  0  0  0  0  0  0
    0.8048    3.3200    0.0284 C   0  0  0  0  0  0  0  0  0  0  0  0
    1.0527    1.9680    0.0150 C   0  0  0  0  0  0  0  0  0  0  0  0
    0.0069    1.1025    0.0123 C   0  0  0  0  0  0  0  0  0  0  0  0
   -1.3746    2.1496    0.0218 S   0  0  0  0  0  0  0  0  0  0  0  0
   -5.5535    9.9348   -2.1550 H   0  0  0  0  0  0  0  0  0  0  0  0
   -3.6891    9.5184   -0.6066 H   0  0  0  0  0  0  0  0  0  0  0  0
   -6.3831    8.1440   -3.6125 H   0  0  0  0  0  0  0  0  0  0  0  0
   -5.3315    4.7448   -3.4748 H   0  0  0  0  0  0  0  0  0  0  0  0
   -6.5918    4.0854   -5.3303 H   0  0  0  0  0  0  0  0  0  0  0  0
   -7.0983    5.2321   -6.4488 H   0  0  0  0  0  0  0  0  0  0  0  0
    1.6091    4.0409    0.0314 H   0  0  0  0  0  0  0  0  0  0  0  0
    2.0676    1.5987    0.0064 H   0  0  0  0  0  0  0  0  0  0  0  0
    0.0300    0.0228    0.0018 H   0  0  0  0  0  0  0  0  0  0  0  0
  1  6  2  0        0
  1  2  1  0        0
  1 24  1  0        0
  2  3  2  0        0
  2 25  1  0        0
  3 14  1  0        0
  3  4  1  0        0
  4  5  2  0        0
  4 11  1  0        0
  5  6  1  0        0
  5  7  1  0        0
  6 26  1  0        0
  7  8  1  0        0
  7 27  1  0        0
  8  9  2  0        0
  8 10  1  0        0
 10 28  1  0        0
 10 29  1  0        0
 11 12  2  0        0
 11 13  1  0        0
 13 18  2  0        0
 13 14  1  0        0
 14 15  2  0        0
 15 16  1  0        0
 16 17  1  0        0
 16 18  1  0        0
 18 19  1  0        0
 19 23  1  0        0
 19 20  2  0        0
 20 21  1  0        0
 20 30  1  0        0
 21 22  2  0        0
 21 31  1  0        0
 22 23  1  0        0
 22 32  1  0        0
M  END
>  <MolfileName> (62)
ZINC03814477

$$$$
ZINC03814477
csCF1202/ 12301312233D

 32 35  0  0  0  0  0  0  0  0999 V2000
   -5.0963    8.9571   -2.1167 C   0  0  0  0  0  0  0  0  0  0  0  0
   -4.0460    8.7233   -1.2444 C   0  0  0  0  0  0  0  0  0  0  0  0
   -3.4503    7.4699   -1.1866 C   0  0  0  0  0  0  0  0  0  0  0  0
   -3.9191    6.4380   -2.0189 C   0  0  0  0  0  0  0  0  0  0  0  0
   -4.9820    6.6873   -2.8961 C   0  0  0  0  0  0  0  0  0  0  0  0
   -5.5632    7.9505   -2.9367 C   0  0  0  0  0  0  0  0  0  0  0  0
   -5.4556    5.6737   -3.7251 N   0  0  0  0  0  0  0  0  0  0  0  0
   -6.0865    5.9833   -4.8751 C   0  0  0  0  0  0  0  0  0  0  0  0
   -6.1523    7.1413   -5.2396 O   0  0  0  0  0  0  0  0  0  0  0  0
   -6.6443    5.0093   -5.6211 N   0  0  0  0  0  0  0  0  0  0  0  0
   -3.1233    5.2205   -1.7635 C   0  0  0  0  0  0  0  0  0  0  0  0
   -3.2635    4.1431   -2.3125 O   0  0  0  0  0  0  0  0  0  0  0  0
   -2.1342    5.5419   -0.7300 C   0  0  0  0  0  0  0  0  0  0  0  0
   -2.3317    6.9472   -0.3636 C   0  0  0  0  0  0  0  0  0  0  0  0
   -1.4497    7.2387    0.5598 N   0  0  0  0  0  0  0  0  0  0  0  0
   -0.6736    6.1102    0.8412 N   0  0  0  0  0  0  0  0  0  0  0  0
    0.0650    6.0693    1.5141 H   0  0  0  0  0  0  0  0  0  0  0  0
   -1.0824    5.0726    0.0531 C   0  0  0  0  0  0  0  0  0  0  0  0
   -0.5232    3.7173    0.0385 C   0  0  0  0  0  0  0  0  0  0  0  0
    0.8048    3.3200    0.0284 C   0  0  0  0  0  0  0  0  0  0  0  0
    1.0527    1.9680    0.0150 C   0  0  0  0  0  0  0  0  0  0  0  0
    0.0069    1.1025    0.0123 C   0  0  0  0  0  0  0  0  0  0  0  0
   -1.3746    2.1496    0.0218 S   0  0  0  0  0  0  0  0  0  0  0  0
   -5.5535    9.9348   -2.1550 H   0  0  0  0  0  0  0  0  0  0  0  0
   -3.6891    9.5184   -0.6066 H   0  0  0  0  0  0  0  0  0  0  0  0
   -6.3831    8.1440   -3.6125 H   0  0  0  0  0  0  0  0  0  0  0  0
   -5.3315    4.7448   -3.4748 H   0  0  0  0  0  0  0  0  0  0  0  0
   -6.5918    4.0854   -5.3303 H   0  0  0  0  0  0  0  0  0  0  0  0
   -7.0983    5.2321   -6.4488 H   0  0  0  0  0  0  0  0  0  0  0  0
    1.6091    4.0409    0.0314 H   0  0  0  0  0  0  0  0  0  0  0  0
    2.0676    1.5987    0.0064 H   0  0  0  0  0  0  0  0  0  0  0  0
    0.0300    0.0228    0.0018 H   0  0  0  0  0  0  0  0  0  0  0  0
  1  6  2  0        0
  1  2  1  0        0
  1 24  1  0        0
  2  3  2  0        0
  2 25  1  0        0
  3 14  1  0        0
  3  4  1  0        0
  4  5  2  0        0
  4 11  1  0        0
  5  6  1  0        0
  5  7  1  0        0
  6 26  1  0        0
  7  8  1  0        0
  7 27  1  0        0
  8  9  2  0        0
  8 10  1  0        0
 10 28  1  0        0
 10 29  1  0        0
 11 12  2  0        0
 11 13  1  0        0
 13 18  2  0        0
 13 14  1  0        0
 14 15  2  0        0
 15 16  1  0        0
 16 17  1  0        0
 16 18  1  0        0
 18 19  1  0        0
 19 23  1  0        0
 19 20  2  0        0
 20 21  1  0        0
 20 30  1  0        0
 21 22  2  0        0
 21 31  1  0        0
 22 23  1  0        0
 22 32  1  0        0
M  END
>  <MolfileName> (63)
ZINC03814477

$$$$
ZINC03814478
csCF1202/ 12301312233D

 55 59  0  0  0  0  0  0  0  0999 V2000
   -2.8618   -0.4607   -1.3034 C   0  0  0  0  0  0  0  0  0  0  0  0
   -2.9026    0.5941   -0.2279 C   0  0  0  0  0  0  0  0  0  0  0  0
   -1.7741    0.9175    0.4929 C   0  0  0  0  0  0  0  0  0  0  0  0
   -2.4307    2.1753    1.5796 S   0  0  0  0  0  0  0  0  0  0  0  0
   -4.0630    2.1547    0.9874 C   0  0  0  0  0  0  0  0  0  0  0  0
   -4.0125    1.2317    0.0508 N   0  0  0  0  0  0  0  0  0  0  0  0
   -5.2410    2.9801    1.4370 C   0  0  0  0  0  0  0  0  0  0  0  0
   -0.4138    0.3757    0.3990 C   0  0  0  0  0  0  0  0  0  0  0  0
    0.7679    1.1107    0.3615 C   0  0  0  0  0  0  0  0  0  0  0  0
    1.8603    0.1389    0.2600 C   0  0  0  0  0  0  0  0  0  0  0  0
    1.3215   -1.0549    0.2422 N   0  0  0  0  0  0  0  0  0  0  0  0
   -0.0698   -0.9434    0.3259 N   0  0  0  0  0  0  0  0  0  0  0  0
   -0.7122   -1.7098    0.3314 H   0  0  0  0  0  0  0  0  0  0  0  0
    3.1329    0.9008    0.2180 C   0  0  0  0  0  0  0  0  0  0  0  0
    4.4553    0.4846    0.1264 C   0  0  0  0  0  0  0  0  0  0  0  0
    5.4800    1.4159    0.1056 C   0  0  0  0  0  0  0  0  0  0  0  0
    5.2016    2.7658    0.1759 C   0  0  0  0  0  0  0  0  0  0  0  0
    3.8855    3.2058    0.2684 C   0  0  0  0  0  0  0  0  0  0  0  0
    2.8399    2.2739    0.2901 C   0  0  0  0  0  0  0  0  0  0  0  0
    1.3758    2.4452    0.3806 C   0  0  0  0  0  0  0  0  0  0  0  0
    0.7804    3.5041    0.4569 O   0  0  0  0  0  0  0  0  0  0  0  0
    3.6080    4.5684    0.3387 N   0  0  0  0  0  0  0  0  0  0  0  0
    4.5026    5.4106    0.8928 C   0  0  0  0  0  0  0  0  0  0  0  0
    5.5841    4.9934    1.2594 O   0  0  0  0  0  0  0  0  0  0  0  0
    4.1982    6.7152    1.0406 N   0  0  0  0  0  0  0  0  0  0  0  0
    2.9830    7.1839    0.6287 N   0  0  0  0  0  0  0  0  0  0  0  0
    3.1360    8.1570   -0.4618 C   0  0  0  0  0  0  0  0  0  0  0  0
    1.7527    8.5970   -0.9471 C   0  0  0  0  0  0  0  0  0  0  0  0
    0.8526    8.2081    1.2659 C   0  0  0  0  0  0  0  0  0  0  0  0
    2.2359    7.7682    1.7512 C   0  0  0  0  0  0  0  0  0  0  0  0
   -0.3012    9.6854   -0.2675 C   0  0  0  0  0  0  0  0  0  0  0  0
   -2.9973   -1.4441   -0.8531 H   0  0  0  0  0  0  0  0  0  0  0  0
   -3.6599   -0.2773   -2.0227 H   0  0  0  0  0  0  0  0  0  0  0  0
   -1.8985   -0.4237   -1.8122 H   0  0  0  0  0  0  0  0  0  0  0  0
   -5.7634    2.4605    2.2402 H   0  0  0  0  0  0  0  0  0  0  0  0
   -4.8905    3.9472    1.7975 H   0  0  0  0  0  0  0  0  0  0  0  0
   -5.9211    3.1297    0.5984 H   0  0  0  0  0  0  0  0  0  0  0  0
    4.6849   -0.5692    0.0708 H   0  0  0  0  0  0  0  0  0  0  0  0
    6.5049    1.0833    0.0336 H   0  0  0  0  0  0  0  0  0  0  0  0
    6.0087    3.4832    0.1587 H   0  0  0  0  0  0  0  0  0  0  0  0
    2.7709    4.9116   -0.0112 H   0  0  0  0  0  0  0  0  0  0  0  0
    4.8420    7.3213    1.4394 H   0  0  0  0  0  0  0  0  0  0  0  0
    3.6874    9.0249   -0.1000 H   0  0  0  0  0  0  0  0  0  0  0  0
    3.6811    7.6970   -1.2860 H   0  0  0  0  0  0  0  0  0  0  0  0
    1.2115    7.7336   -1.3340 H   0  0  0  0  0  0  0  0  0  0  0  0
    1.8637    9.3406   -1.7363 H   0  0  0  0  0  0  0  0  0  0  0  0
    0.3012    7.3403    0.9042 H   0  0  0  0  0  0  0  0  0  0  0  0
    0.3073    8.6678    2.0902 H   0  0  0  0  0  0  0  0  0  0  0  0
    2.1249    7.0246    2.5404 H   0  0  0  0  0  0  0  0  0  0  0  0
    2.7773    8.6313    2.1384 H   0  0  0  0  0  0  0  0  0  0  0  0
   -0.8048   10.1724    0.5675 H   0  0  0  0  0  0  0  0  0  0  0  0
   -0.1589   10.4036   -1.0749 H   0  0  0  0  0  0  0  0  0  0  0  0
   -0.9095    8.8540   -0.6237 H   0  0  0  0  0  0  0  0  0  0  0  0
    1.0209    9.2025    0.1852 N   0  3  0  0  0  0  0  0  0  0  0  0
    1.5614    9.9980    0.5448 H   0  0  0  0  0  0  0  0  0  0  0  0
  1  2  1  0        0
  1 32  1  0        0
  1 33  1  0        0
  1 34  1  0        0
  2  6  1  0        0
  2  3  2  0        0
  3  4  1  0        0
  3  8  1  0        0
  4  5  1  0        0
  5  6  2  0        0
  5  7  1  0        0
  7 35  1  0        0
  7 36  1  0        0
  7 37  1  0        0
  8 12  1  0        0
  8  9  2  0        0
  9 20  1  0        0
  9 10  1  0        0
 10 11  2  0        0
 10 14  1  0        0
 11 12  1  0        0
 12 13  1  0        0
 14 19  2  0        0
 14 15  1  0        0
 15 16  2  0        0
 15 38  1  0        0
 16 17  1  0        0
 16 39  1  0        0
 17 18  2  0        0
 17 40  1  0        0
 18 19  1  0        0
 18 22  1  0        0
 19 20  1  0        0
 20 21  2  0        0
 22 23  1  0        0
 22 41  1  0        0
 23 24  2  0        0
 23 25  1  0        0
 25 26  1  0        0
 25 42  1  0        0
 26 30  1  0        0
 26 27  1  0        0
 27 28  1  0        0
 27 43  1  0        0
 27 44  1  0        0
 28 45  1  0        0
 28 46  1  0        0
 28 54  1  0        0
 29 30  1  0        0
 29 47  1  0        0
 29 48  1  0        0
 29 54  1  0        0
 30 49  1  0        0
 30 50  1  0        0
 31 51  1  0        0
 31 52  1  0        0
 31 53  1  0        0
 31 54  1  0        0
 54 55  1  0        0
M  CHG  1  54   1
M  END
>  <MolfileName> (64)
ZINC03814478

$$$$
ZINC03814478
csCF1202/ 12301312233D

 55 59  0  0  0  0  0  0  0  0999 V2000
   -2.8618   -0.4607   -1.3034 C   0  0  0  0  0  0  0  0  0  0  0  0
   -2.9026    0.5941   -0.2279 C   0  0  0  0  0  0  0  0  0  0  0  0
   -1.7741    0.9175    0.4929 C   0  0  0  0  0  0  0  0  0  0  0  0
   -2.4307    2.1753    1.5796 S   0  0  0  0  0  0  0  0  0  0  0  0
   -4.0630    2.1547    0.9874 C   0  0  0  0  0  0  0  0  0  0  0  0
   -4.0125    1.2317    0.0508 N   0  0  0  0  0  0  0  0  0  0  0  0
   -5.2410    2.9801    1.4370 C   0  0  0  0  0  0  0  0  0  0  0  0
   -0.4138    0.3757    0.3990 C   0  0  0  0  0  0  0  0  0  0  0  0
    0.7679    1.1107    0.3615 C   0  0  0  0  0  0  0  0  0  0  0  0
    1.8603    0.1389    0.2600 C   0  0  0  0  0  0  0  0  0  0  0  0
    1.3215   -1.0549    0.2422 N   0  0  0  0  0  0  0  0  0  0  0  0
   -0.0698   -0.9434    0.3259 N   0  0  0  0  0  0  0  0  0  0  0  0
   -0.7122   -1.7098    0.3314 H   0  0  0  0  0  0  0  0  0  0  0  0
    3.1329    0.9008    0.2180 C   0  0  0  0  0  0  0  0  0  0  0  0
    4.4553    0.4846    0.1264 C   0  0  0  0  0  0  0  0  0  0  0  0
    5.4800    1.4159    0.1056 C   0  0  0  0  0  0  0  0  0  0  0  0
    5.2016    2.7658    0.1759 C   0  0  0  0  0  0  0  0  0  0  0  0
    3.8855    3.2058    0.2684 C   0  0  0  0  0  0  0  0  0  0  0  0
    2.8399    2.2739    0.2901 C   0  0  0  0  0  0  0  0  0  0  0  0
    1.3758    2.4452    0.3806 C   0  0  0  0  0  0  0  0  0  0  0  0
    0.7804    3.5041    0.4569 O   0  0  0  0  0  0  0  0  0  0  0  0
    3.6080    4.5684    0.3387 N   0  0  0  0  0  0  0  0  0  0  0  0
    4.5026    5.4106    0.8928 C   0  0  0  0  0  0  0  0  0  0  0  0
    5.5841    4.9934    1.2594 O   0  0  0  0  0  0  0  0  0  0  0  0
    4.1982    6.7152    1.0406 N   0  0  0  0  0  0  0  0  0  0  0  0
    2.9830    7.1839    0.6287 N   0  0  0  0  0  0  0  0  0  0  0  0
    3.1360    8.1570   -0.4618 C   0  0  0  0  0  0  0  0  0  0  0  0
    1.7527    8.5970   -0.9471 C   0  0  0  0  0  0  0  0  0  0  0  0
    0.8526    8.2081    1.2659 C   0  0  0  0  0  0  0  0  0  0  0  0
    2.2359    7.7682    1.7512 C   0  0  0  0  0  0  0  0  0  0  0  0
   -0.3012    9.6854   -0.2675 C   0  0  0  0  0  0  0  0  0  0  0  0
   -2.9973   -1.4441   -0.8531 H   0  0  0  0  0  0  0  0  0  0  0  0
   -3.6599   -0.2773   -2.0227 H   0  0  0  0  0  0  0  0  0  0  0  0
   -1.8985   -0.4237   -1.8122 H   0  0  0  0  0  0  0  0  0  0  0  0
   -5.7634    2.4605    2.2402 H   0  0  0  0  0  0  0  0  0  0  0  0
   -4.8905    3.9472    1.7975 H   0  0  0  0  0  0  0  0  0  0  0  0
   -5.9211    3.1297    0.5984 H   0  0  0  0  0  0  0  0  0  0  0  0
    4.6849   -0.5692    0.0708 H   0  0  0  0  0  0  0  0  0  0  0  0
    6.5049    1.0833    0.0336 H   0  0  0  0  0  0  0  0  0  0  0  0
    6.0087    3.4832    0.1587 H   0  0  0  0  0  0  0  0  0  0  0  0
    2.7709    4.9116   -0.0112 H   0  0  0  0  0  0  0  0  0  0  0  0
    4.8420    7.3213    1.4394 H   0  0  0  0  0  0  0  0  0  0  0  0
    3.6874    9.0249   -0.1000 H   0  0  0  0  0  0  0  0  0  0  0  0
    3.6811    7.6970   -1.2860 H   0  0  0  0  0  0  0  0  0  0  0  0
    1.2115    7.7336   -1.3340 H   0  0  0  0  0  0  0  0  0  0  0  0
    1.8637    9.3406   -1.7363 H   0  0  0  0  0  0  0  0  0  0  0  0
    0.3012    7.3403    0.9042 H   0  0  0  0  0  0  0  0  0  0  0  0
    0.3073    8.6678    2.0902 H   0  0  0  0  0  0  0  0  0  0  0  0
    2.1249    7.0246    2.5404 H   0  0  0  0  0  0  0  0  0  0  0  0
    2.7773    8.6313    2.1384 H   0  0  0  0  0  0  0  0  0  0  0  0
   -0.8048   10.1724    0.5675 H   0  0  0  0  0  0  0  0  0  0  0  0
   -0.1589   10.4036   -1.0749 H   0  0  0  0  0  0  0  0  0  0  0  0
   -0.9095    8.8540   -0.6237 H   0  0  0  0  0  0  0  0  0  0  0  0
    1.0209    9.2025    0.1852 N   0  3  0  0  0  0  0  0  0  0  0  0
    1.5614    9.9980    0.5448 H   0  0  0  0  0  0  0  0  0  0  0  0
  1  2  1  0        0
  1 32  1  0        0
  1 33  1  0        0
  1 34  1  0        0
  2  6  1  0        0
  2  3  2  0        0
  3  4  1  0        0
  3  8  1  0        0
  4  5  1  0        0
  5  6  2  0        0
  5  7  1  0        0
  7 35  1  0        0
  7 36  1  0        0
  7 37  1  0        0
  8 12  1  0        0
  8  9  2  0        0
  9 20  1  0        0
  9 10  1  0        0
 10 11  2  0        0
 10 14  1  0        0
 11 12  1  0        0
 12 13  1  0        0
 14 19  2  0        0
 14 15  1  0        0
 15 16  2  0        0
 15 38  1  0        0
 16 17  1  0        0
 16 39  1  0        0
 17 18  2  0        0
 17 40  1  0        0
 18 19  1  0        0
 18 22  1  0        0
 19 20  1  0        0
 20 21  2  0        0
 22 23  1  0        0
 22 41  1  0        0
 23 24  2  0        0
 23 25  1  0        0
 25 26  1  0        0
 25 42  1  0        0
 26 30  1  0        0
 26 27  1  0        0
 27 28  1  0        0
 27 43  1  0        0
 27 44  1  0        0
 28 45  1  0        0
 28 46  1  0        0
 28 54  1  0        0
 29 30  1  0        0
 29 47  1  0        0
 29 48  1  0        0
 29 54  1  0        0
 30 49  1  0        0
 30 50  1  0        0
 31 51  1  0        0
 31 52  1  0        0
 31 53  1  0        0
 31 54  1  0        0
 54 55  1  0        0
M  CHG  1  54   1
M  END
>  <MolfileName> (65)
ZINC03814478

$$$$
ZINC03814479
csCF1202/ 12301312233D

 35 36  0  0  0  0  0  0  0  0999 V2000
   -9.9987    0.4145    0.5492 C   0  0  0  0  0  0  0  0  0  0  0  0
   -9.5860    1.0868    1.8601 C   0  0  0  0  0  0  0  0  0  0  0  0
   -8.3430    1.9468    1.6230 C   0  0  0  0  0  0  0  0  0  0  0  0
   -7.1995    1.0630    1.1210 C   0  0  0  0  0  0  0  0  0  0  0  0
   -7.6122    0.3907   -0.1899 C   0  0  0  0  0  0  0  0  0  0  0  0
   -8.8552   -0.4694    0.0472 C   0  0  0  0  0  0  0  0  0  0  0  0
   -5.9565    1.9230    0.8839 C   0  0  0  0  0  0  0  0  0  0  0  0
   -4.8569    1.0829    0.5274 O   0  0  0  0  0  0  0  0  0  0  0  0
   -3.6757    1.6899    0.2828 C   0  0  0  0  0  0  0  0  0  0  0  0
   -2.4857    0.9095   -0.0912 C   0  0  0  0  0  0  0  0  0  0  0  0
   -1.2459    1.6662   -0.3375 C   0  0  0  0  0  0  0  0  0  0  0  0
   -1.2856    2.9849   -0.2017 N   0  0  0  0  0  0  0  0  0  0  0  0
   -2.4007    3.6155    0.1343 C   0  0  0  0  0  0  0  0  0  0  0  0
   -3.5536    3.0043    0.3718 N   0  0  0  0  0  0  0  0  0  0  0  0
   -2.3595    4.9841    0.2488 N   0  0  0  0  0  0  0  0  0  0  0  0
   -0.0850    1.0261   -0.6909 N   0  0  0  0  0  0  0  0  0  0  0  0
   -2.5270   -0.4087   -0.2007 N   0  0  0  0  0  0  0  0  0  0  0  0
   -1.4999   -1.0588   -0.1226 O   0  0  0  0  0  0  0  0  0  0  0  0
  -10.8842   -0.1982    0.7181 H   0  0  0  0  0  0  0  0  0  0  0  0
  -10.2219    1.1779   -0.1961 H   0  0  0  0  0  0  0  0  0  0  0  0
   -9.3629    0.3234    2.6054 H   0  0  0  0  0  0  0  0  0  0  0  0
  -10.4007    1.7165    2.2177 H   0  0  0  0  0  0  0  0  0  0  0  0
   -8.0490    2.4258    2.5569 H   0  0  0  0  0  0  0  0  0  0  0  0
   -8.5662    2.7103    0.8777 H   0  0  0  0  0  0  0  0  0  0  0  0
   -6.9763    0.2995    1.8664 H   0  0  0  0  0  0  0  0  0  0  0  0
   -7.8353    1.1541   -0.9352 H   0  0  0  0  0  0  0  0  0  0  0  0
   -6.7975   -0.2390   -0.5475 H   0  0  0  0  0  0  0  0  0  0  0  0
   -8.6320   -1.2328    0.7925 H   0  0  0  0  0  0  0  0  0  0  0  0
   -9.1492   -0.9483   -0.8867 H   0  0  0  0  0  0  0  0  0  0  0  0
   -5.7147    2.4710    1.7946 H   0  0  0  0  0  0  0  0  0  0  0  0
   -6.1515    2.6285    0.0762 H   0  0  0  0  0  0  0  0  0  0  0  0
   -3.1589    5.4744    0.4969 H   0  0  0  0  0  0  0  0  0  0  0  0
   -1.5310    5.4601    0.0815 H   0  0  0  0  0  0  0  0  0  0  0  0
   -0.0986    0.0802   -0.9054 H   0  0  0  0  0  0  0  0  0  0  0  0
    0.7488    1.5203   -0.7300 H   0  0  0  0  0  0  0  0  0  0  0  0
  1  6  1  0        0
  1  2  1  0        0
  1 19  1  0        0
  1 20  1  0        0
  2  3  1  0        0
  2 21  1  0        0
  2 22  1  0        0
  3  4  1  0        0
  3 23  1  0        0
  3 24  1  0        0
  4  5  1  0        0
  4  7  1  0        0
  4 25  1  0        0
  5  6  1  0        0
  5 26  1  0        0
  5 27  1  0        0
  6 28  1  0        0
  6 29  1  0        0
  7  8  1  0        0
  7 30  1  0        0
  7 31  1  0        0
  8  9  1  0        0
  9 14  2  0        0
  9 10  1  0        0
 10 11  2  0        0
 10 17  1  0        0
 11 12  1  0        0
 11 16  1  0        0
 12 13  2  0        0
 13 14  1  0        0
 13 15  1  0        0
 15 32  1  0        0
 15 33  1  0        0
 16 34  1  0        0
 16 35  1  0        0
 17 18  2  0        0
M  END
>  <MolfileName> (66)
ZINC03814479

$$$$
ZINC03814479
csCF1202/ 12301312233D

 36 37  0  0  0  0  0  0  0  0999 V2000
   -9.9987    0.4145    0.5492 C   0  0  0  0  0  0  0  0  0  0  0  0
   -9.5860    1.0868    1.8601 C   0  0  0  0  0  0  0  0  0  0  0  0
   -8.3430    1.9468    1.6230 C   0  0  0  0  0  0  0  0  0  0  0  0
   -7.1995    1.0630    1.1210 C   0  0  0  0  0  0  0  0  0  0  0  0
   -7.6122    0.3907   -0.1899 C   0  0  0  0  0  0  0  0  0  0  0  0
   -8.8552   -0.4694    0.0472 C   0  0  0  0  0  0  0  0  0  0  0  0
   -5.9565    1.9230    0.8839 C   0  0  0  0  0  0  0  0  0  0  0  0
   -4.8569    1.0829    0.5274 O   0  0  0  0  0  0  0  0  0  0  0  0
   -3.6757    1.6899    0.2828 C   0  0  0  0  0  0  0  0  0  0  0  0
   -2.4857    0.9095   -0.0912 C   0  0  0  0  0  0  0  0  0  0  0  0
   -1.2459    1.6662   -0.3375 C   0  0  0  0  0  0  0  0  0  0  0  0
   -1.2856    2.9849   -0.2017 N   0  0  0  0  0  0  0  0  0  0  0  0
   -2.4007    3.6155    0.1343 C   0  0  0  0  0  0  0  0  0  0  0  0
   -2.3595    4.9841    0.2488 N   0  0  0  0  0  0  0  0  0  0  0  0
   -0.0850    1.0261   -0.6909 N   0  0  0  0  0  0  0  0  0  0  0  0
   -2.5270   -0.4087   -0.2007 N   0  0  0  0  0  0  0  0  0  0  0  0
   -1.4999   -1.0588   -0.1226 O   0  0  0  0  0  0  0  0  0  0  0  0
  -10.8842   -0.1982    0.7181 H   0  0  0  0  0  0  0  0  0  0  0  0
  -10.2219    1.1779   -0.1961 H   0  0  0  0  0  0  0  0  0  0  0  0
   -9.3629    0.3234    2.6054 H   0  0  0  0  0  0  0  0  0  0  0  0
  -10.4007    1.7165    2.2177 H   0  0  0  0  0  0  0  0  0  0  0  0
   -8.0490    2.4258    2.5569 H   0  0  0  0  0  0  0  0  0  0  0  0
   -8.5662    2.7103    0.8777 H   0  0  0  0  0  0  0  0  0  0  0  0
   -6.9763    0.2995    1.8664 H   0  0  0  0  0  0  0  0  0  0  0  0
   -7.8353    1.1541   -0.9352 H   0  0  0  0  0  0  0  0  0  0  0  0
   -6.7975   -0.2390   -0.5475 H   0  0  0  0  0  0  0  0  0  0  0  0
   -8.6320   -1.2328    0.7925 H   0  0  0  0  0  0  0  0  0  0  0  0
   -9.1492   -0.9483   -0.8867 H   0  0  0  0  0  0  0  0  0  0  0  0
   -5.7147    2.4710    1.7946 H   0  0  0  0  0  0  0  0  0  0  0  0
   -6.1515    2.6285    0.0762 H   0  0  0  0  0  0  0  0  0  0  0  0
   -3.1589    5.4744    0.4969 H   0  0  0  0  0  0  0  0  0  0  0  0
   -1.5310    5.4601    0.0815 H   0  0  0  0  0  0  0  0  0  0  0  0
   -0.0986    0.0802   -0.9054 H   0  0  0  0  0  0  0  0  0  0  0  0
    0.7488    1.5203   -0.7300 H   0  0  0  0  0  0  0  0  0  0  0  0
   -3.6174    3.0480    0.3920 N   0  3  0  0  0  0  0  0  0  0  0  0
   -4.4347    3.5646    0.6472 H   0  0  0  0  0  0  0  0  0  0  0  0
  1  6  1  0        0
  1  2  1  0        0
  1 18  1  0        0
  1 19  1  0        0
  2  3  1  0        0
  2 20  1  0        0
  2 21  1  0        0
  3  4  1  0        0
  3 22  1  0        0
  3 23  1  0        0
  4  5  1  0        0
  4  7  1  0        0
  4 24  1  0        0
  5  6  1  0        0
  5 25  1  0        0
  5 26  1  0        0
  6 27  1  0        0
  6 28  1  0        0
  7  8  1  0        0
  7 29  1  0        0
  7 30  1  0        0
  8  9  1  0        0
  9 10  2  0        0
  9 35  1  0        0
 10 11  1  0        0
 10 16  1  0        0
 11 12  2  0        0
 11 15  1  0        0
 12 13  1  0        0
 13 14  1  0        0
 13 35  2  0        0
 14 31  1  0        0
 14 32  1  0        0
 15 33  1  0        0
 15 34  1  0        0
 16 17  2  0        0
 35 36  1  0        0
M  CHG  1  35   1
M  END
>  <MolfileName> (67)
ZINC03814479

$$$$
ZINC03831630
csCF1202/ 12301312233D

 46 50  0  0  0  0  0  0  0  0999 V2000
   -6.7304    6.1109    4.6199 C   0  0  0  0  0  0  0  0  0  0  0  0
   -5.4689    6.2256    4.0505 C   0  0  0  0  0  0  0  0  0  0  0  0
   -5.2943    5.8956    2.7217 C   0  0  0  0  0  0  0  0  0  0  0  0
   -6.3075    5.4690    1.9915 N   0  0  0  0  0  0  0  0  0  0  0  0
   -7.5259    5.3515    2.4960 C   0  0  0  0  0  0  0  0  0  0  0  0
   -7.7739    5.6667    3.8284 C   0  0  0  0  0  0  0  0  0  0  0  0
   -8.5654    4.9038    1.6891 N   0  0  0  0  0  0  0  0  0  0  0  0
   -8.2784    4.5267    0.1024 S   0  0  0  0  0  0  0  0  0  0  0  0
   -7.5536    5.6172   -0.4496 O   0  0  0  0  0  0  0  0  0  0  0  0
   -9.5143    4.0813   -0.4392 O   0  0  0  0  0  0  0  0  0  0  0  0
   -7.1920    3.1395    0.0849 C   0  0  0  0  0  0  0  0  0  0  0  0
   -7.7102    1.8574    0.0831 C   0  0  0  0  0  0  0  0  0  0  0  0
   -6.8616    0.7680    0.0694 C   0  0  0  0  0  0  0  0  0  0  0  0
   -5.4859    0.9612    0.0579 C   0  0  0  0  0  0  0  0  0  0  0  0
   -4.9686    2.2506    0.0660 C   0  0  0  0  0  0  0  0  0  0  0  0
   -5.8230    3.3355    0.0735 C   0  0  0  0  0  0  0  0  0  0  0  0
   -4.6243   -0.1389    0.0440 N   0  0  0  0  0  0  0  0  0  0  0  0
   -3.2758    0.0524    0.0328 C   0  0  0  0  0  0  0  0  0  0  0  0
   -2.4340   -1.0224    0.0192 C   0  0  0  0  0  0  0  0  0  0  0  0
   -0.9520   -1.0052    0.0058 C   0  0  0  0  0  0  0  0  0  0  0  0
   -0.5462   -2.3456   -0.0062 C   0  0  0  0  0  0  0  0  0  0  0  0
    0.8192   -2.6317   -0.0207 C   0  0  0  0  0  0  0  0  0  0  0  0
    1.7557   -1.6475   -0.0240 C   0  0  0  0  0  0  0  0  0  0  0  0
    1.3859   -0.2820   -0.0127 C   0  0  0  0  0  0  0  0  0  0  0  0
    0.0021   -0.0041    0.0020 C   0  0  0  0  0  0  0  0  0  0  0  0
   -0.0220    1.7707    0.0118 S   0  0  0  0  0  0  0  0  0  0  0  0
    1.6957    2.0235   -0.0033 C   0  0  0  0  0  0  0  0  0  0  0  0
    2.1764    0.8124   -0.0144 N   0  0  0  0  0  0  0  0  0  0  0  0
   -1.6687   -3.1641   -0.0005 N   0  0  0  0  0  0  0  0  0  0  0  0
   -2.8019   -2.4424    0.0147 C   0  0  0  0  0  0  0  0  0  0  0  0
   -3.9357   -2.8889    0.0228 O   0  0  0  0  0  0  0  0  0  0  0  0
   -6.8930    6.3633    5.6573 H   0  0  0  0  0  0  0  0  0  0  0  0
   -4.6328    6.5693    4.6415 H   0  0  0  0  0  0  0  0  0  0  0  0
   -4.3149    5.9833    2.2749 H   0  0  0  0  0  0  0  0  0  0  0  0
   -8.7676    5.5655    4.2389 H   0  0  0  0  0  0  0  0  0  0  0  0
   -9.4589    4.8124    2.0554 H   0  0  0  0  0  0  0  0  0  0  0  0
   -8.7797    1.7079    0.0920 H   0  0  0  0  0  0  0  0  0  0  0  0
   -7.2669   -0.2331    0.0680 H   0  0  0  0  0  0  0  0  0  0  0  0
   -3.8996    2.4043    0.0616 H   0  0  0  0  0  0  0  0  0  0  0  0
   -5.4217    4.3382    0.0749 H   0  0  0  0  0  0  0  0  0  0  0  0
   -4.9865   -1.0387    0.0424 H   0  0  0  0  0  0  0  0  0  0  0  0
   -2.8724    1.0542    0.0346 H   0  0  0  0  0  0  0  0  0  0  0  0
    1.1402   -3.6629   -0.0300 H   0  0  0  0  0  0  0  0  0  0  0  0
    2.8026   -1.9126   -0.0351 H   0  0  0  0  0  0  0  0  0  0  0  0
    2.2356    2.9589   -0.0037 H   0  0  0  0  0  0  0  0  0  0  0  0
   -1.6382   -4.1336   -0.0063 H   0  0  0  0  0  0  0  0  0  0  0  0
  1  6  2  0        0
  1  2  1  0        0
  1 32  1  0        0
  2  3  2  0        0
  2 33  1  0        0
  3  4  1  0        0
  3 34  1  0        0
  4  5  2  0        0
  5  6  1  0        0
  5  7  1  0        0
  6 35  1  0        0
  7  8  1  0        0
  7 36  1  0        0
  8  9  2  0        0
  8 10  2  0        0
  8 11  1  0        0
 11 16  2  0        0
 11 12  1  0        0
 12 13  2  0        0
 12 37  1  0        0
 13 14  1  0        0
 13 38  1  0        0
 14 15  2  0        0
 14 17  1  0        0
 15 16  1  0        0
 15 39  1  0        0
 16 40  1  0        0
 17 18  1  0        0
 17 41  1  0        0
 18 19  2  0        0
 18 42  1  0        0
 19 30  1  0        0
 19 20  1  0        0
 20 25  2  0        0
 20 21  1  0        0
 21 22  2  0        0
 21 29  1  0        0
 22 23  1  0        0
 22 43  1  0        0
 23 24  2  0        0
 23 44  1  0        0
 24 28  1  0        0
 24 25  1  0        0
 25 26  1  0        0
 26 27  1  0        0
 27 28  2  0        0
 27 45  1  0        0
 29 30  1  0        0
 29 46  1  0        0
 30 31  2  0        0
M  END
>  <MolfileName> (68)
ZINC03831630

$$$$
ZINC04617745
csCF1202/ 12301312233D

 49 52  0  0  0  0  0  0  0  0999 V2000
    6.0895   -0.0238    5.9621 C   0  0  0  0  0  0  0  0  0  0  0  0
    5.9739    0.5180    3.6055 C   0  0  0  0  0  0  0  0  0  0  0  0
    6.2126    1.6289    2.5802 C   0  0  0  0  0  0  0  0  0  0  0  0
    5.2418    2.7821    2.8491 C   0  0  1  0  0  0  0  0  0  0  0  0
    4.2171    2.4324    2.7233 H   0  0  0  0  0  0  0  0  0  0  0  0
    5.4391    3.2830    4.2825 C   0  0  1  0  0  0  0  0  0  0  0  0
    4.7207    4.0752    4.4933 H   0  0  0  0  0  0  0  0  0  0  0  0
    5.2218    2.1236    5.2574 C   0  0  0  0  0  0  0  0  0  0  0  0
    6.7669    3.7898    4.4323 O   0  0  0  0  0  0  0  0  0  0  0  0
    5.5132    3.9050    1.8814 C   0  0  0  0  0  0  0  0  0  0  0  0
    6.8017    4.3949    1.7322 C   0  0  0  0  0  0  0  0  0  0  0  0
    7.0678    5.4304    0.8434 C   0  0  0  0  0  0  0  0  0  0  0  0
    6.0448    5.9841    0.0956 C   0  0  0  0  0  0  0  0  0  0  0  0
    4.7411    5.4942    0.2412 C   0  0  0  0  0  0  0  0  0  0  0  0
    4.4748    4.4470    1.1407 C   0  0  0  0  0  0  0  0  0  0  0  0
    3.2147    3.9814    1.2730 O   0  0  0  0  0  0  0  0  0  0  0  0
    2.1871    4.4838    0.5705 C   0  0  0  0  0  0  0  0  0  0  0  0
    2.3394    5.4926   -0.3277 C   0  0  0  0  0  0  0  0  0  0  0  0
    3.6225    6.0546   -0.5353 C   0  0  0  0  0  0  0  0  0  0  0  0
    3.7953    6.9641   -1.3304 O   0  0  0  0  0  0  0  0  0  0  0  0
    0.8407    3.9147    0.7769 C   0  0  0  0  0  0  0  0  0  0  0  0
    0.6478    2.5322    0.7263 C   0  0  0  0  0  0  0  0  0  0  0  0
   -0.6124    2.0073    0.9205 C   0  0  0  0  0  0  0  0  0  0  0  0
   -1.6867    2.8467    1.1599 C   0  0  0  0  0  0  0  0  0  0  0  0
   -1.5036    4.2164    1.2169 C   0  0  0  0  0  0  0  0  0  0  0  0
   -0.2472    4.7566    1.0243 C   0  0  0  0  0  0  0  0  0  0  0  0
   -0.0199    6.4765    1.0889 Cl  0  0  0  0  0  0  0  0  0  0  0  0
    6.3024    6.9947   -0.7728 O   0  0  0  0  0  0  0  0  0  0  0  0
    7.8133    3.8585    2.4614 O   0  0  0  0  0  0  0  0  0  0  0  0
    5.0821   -0.4400    5.9633 H   0  0  0  0  0  0  0  0  0  0  0  0
    6.8063   -0.8079    5.7181 H   0  0  0  0  0  0  0  0  0  0  0  0
    6.3163    0.3819    6.9480 H   0  0  0  0  0  0  0  0  0  0  0  0
    6.6739   -0.2980    3.4264 H   0  0  0  0  0  0  0  0  0  0  0  0
    4.9530    0.1487    3.5081 H   0  0  0  0  0  0  0  0  0  0  0  0
    6.0465    1.2401    1.5756 H   0  0  0  0  0  0  0  0  0  0  0  0
    7.2379    1.9887    2.6669 H   0  0  0  0  0  0  0  0  0  0  0  0
    5.3756    2.4736    6.2782 H   0  0  0  0  0  0  0  0  0  0  0  0
    4.2045    1.7466    5.1523 H   0  0  0  0  0  0  0  0  0  0  0  0
    6.9624    4.1249    5.3180 H   0  0  0  0  0  0  0  0  0  0  0  0
    8.0758    5.8030    0.7365 H   0  0  0  0  0  0  0  0  0  0  0  0
    1.4871    5.8659   -0.8759 H   0  0  0  0  0  0  0  0  0  0  0  0
    1.4839    1.8757    0.5352 H   0  0  0  0  0  0  0  0  0  0  0  0
   -0.7625    0.9385    0.8812 H   0  0  0  0  0  0  0  0  0  0  0  0
   -2.6721    2.4298    1.3071 H   0  0  0  0  0  0  0  0  0  0  0  0
   -2.3456    4.8651    1.4082 H   0  0  0  0  0  0  0  0  0  0  0  0
    6.5268    6.6985   -1.6656 H   0  0  0  0  0  0  0  0  0  0  0  0
    8.2561    3.1140    2.0317 H   0  0  0  0  0  0  0  0  0  0  0  0
    6.2035    1.0581    4.9623 N   0  3  1  0  0  0  0  0  0  0  0  0
    7.1494    1.4550    5.0071 H   0  0  0  0  0  0  0  0  0  0  0  0
  1 30  1  0        0
  1 31  1  0        0
  1 32  1  0        0
  1 48  1  0        0
  2  3  1  0        0
  2 33  1  0        0
  2 34  1  0        0
  2 48  1  0        0
  3  4  1  0        0
  3 35  1  0        0
  3 36  1  0        0
  4  5  1  0        0
  4  6  1  0        0
  4 10  1  0        0
  6  7  1  0        0
  6  8  1  0        0
  6  9  1  0        0
  8 37  1  0        0
  8 38  1  0        0
  8 48  1  0        0
  9 39  1  0        0
 10 15  2  0        0
 10 11  1  0        0
 11 12  2  0        0
 11 29  1  0        0
 12 13  1  0        0
 12 40  1  0        0
 13 14  2  0        0
 13 28  1  0        0
 14 19  1  0        0
 14 15  1  0        0
 15 16  1  0        0
 16 17  1  0        0
 17 18  2  0        0
 17 21  1  0        0
 18 19  1  0        0
 18 41  1  0        0
 19 20  2  0        0
 21 26  2  0        0
 21 22  1  0        0
 22 23  2  0        0
 22 42  1  0        0
 23 24  1  0        0
 23 43  1  0        0
 24 25  2  0        0
 24 44  1  0        0
 25 26  1  0        0
 25 45  1  0        0
 26 27  1  0        0
 28 46  1  0        0
 29 47  1  0        0
 48 49  1  0        0
M  CHG  1  48   1
M  END
>  <MolfileName> (69)
ZINC04617745

$$$$
ZINC04617746
csCF1202/ 12301312233D

 43 47  0  0  0  0  0  0  0  0999 V2000
    2.2955    6.1281    0.0139 C   0  0  0  0  0  0  0  0  0  0  0  0
    3.1805    5.0732   -0.0004 C   0  0  0  0  0  0  0  0  0  0  0  0
    2.7114    3.7625   -0.0033 C   0  0  0  0  0  0  0  0  0  0  0  0
    1.3289    3.5281    0.0023 C   0  0  0  0  0  0  0  0  0  0  0  0
    0.4347    4.5887    0.0237 C   0  0  0  0  0  0  0  0  0  0  0  0
    0.9172    5.8968    0.0260 C   0  0  0  0  0  0  0  0  0  0  0  0
   -0.0258    7.0352    0.0417 C   0  0  0  0  0  0  0  0  0  0  0  0
    0.2976    8.3538    0.0461 C   0  0  0  0  0  0  0  0  0  0  0  0
   -0.8488    9.0507    0.0608 N   0  0  0  0  0  0  0  0  0  0  0  0
   -1.8501    8.2163    0.0655 C   0  0  0  0  0  0  0  0  0  0  0  0
   -1.3750    6.9631    0.0485 O   0  0  0  0  0  0  0  0  0  0  0  0
    1.1561    2.0559    0.0021 C   0  0  0  0  0  0  0  0  0  0  0  0
   -0.0164    1.3575    0.0095 C   0  0  0  0  0  0  0  0  0  0  0  0
    0.0021   -0.0041    0.0020 N   0  0  0  0  0  0  0  0  0  0  0  0
   -1.1985   -0.7192    0.0096 C   0  0  0  0  0  0  0  0  0  0  0  0
   -2.4149   -0.0479    0.0307 C   0  0  0  0  0  0  0  0  0  0  0  0
   -3.5839   -0.7695    0.0330 C   0  0  0  0  0  0  0  0  0  0  0  0
   -3.5778   -2.1685    0.0250 C   0  0  0  0  0  0  0  0  0  0  0  0
   -2.3761   -2.8356    0.0095 C   0  0  0  0  0  0  0  0  0  0  0  0
   -1.1877   -2.1013    0.0021 C   0  0  0  0  0  0  0  0  0  0  0  0
   -2.4363   -4.3639    0.0010 C   0  0  0  0  0  0  0  0  0  0  0  0
   -4.1871   -4.6715   -0.4702 S   0  0  0  0  0  0  0  0  0  0  0  0
   -4.2797   -4.8058   -1.8818 O   0  0  0  0  0  0  0  0  0  0  0  0
   -4.7337   -5.6761    0.3733 O   0  0  0  0  0  0  0  0  0  0  0  0
   -4.8428   -3.0285    0.0318 C   0  0  0  0  0  0  0  0  0  0  0  0
    2.5189    1.5123   -0.0144 C   0  0  0  0  0  0  0  0  0  0  0  0
    2.8180    0.3312   -0.0241 O   0  0  0  0  0  0  0  0  0  0  0  0
    3.3793    2.5442   -0.0168 N   0  0  0  0  0  0  0  0  0  0  0  0
    2.6691    7.1414    0.0160 H   0  0  0  0  0  0  0  0  0  0  0  0
    4.2435    5.2636   -0.0097 H   0  0  0  0  0  0  0  0  0  0  0  0
   -0.6291    4.4021    0.0330 H   0  0  0  0  0  0  0  0  0  0  0  0
    1.2956    8.7665    0.0394 H   0  0  0  0  0  0  0  0  0  0  0  0
   -2.8947    8.4906    0.0766 H   0  0  0  0  0  0  0  0  0  0  0  0
   -0.9589    1.8847    0.0168 H   0  0  0  0  0  0  0  0  0  0  0  0
    0.8486   -0.4776   -0.0086 H   0  0  0  0  0  0  0  0  0  0  0  0
   -2.4412    1.0317    0.0413 H   0  0  0  0  0  0  0  0  0  0  0  0
   -4.5282   -0.2454    0.0452 H   0  0  0  0  0  0  0  0  0  0  0  0
   -0.2425   -2.6235   -0.0101 H   0  0  0  0  0  0  0  0  0  0  0  0
   -1.7544   -4.7766   -0.7425 H   0  0  0  0  0  0  0  0  0  0  0  0
   -2.2224   -4.7679    0.9905 H   0  0  0  0  0  0  0  0  0  0  0  0
   -5.5682   -2.6603   -0.6936 H   0  0  0  0  0  0  0  0  0  0  0  0
   -5.2793   -3.0716    1.0297 H   0  0  0  0  0  0  0  0  0  0  0  0
    4.3447    2.4505   -0.0265 H   0  0  0  0  0  0  0  0  0  0  0  0
  1  6  2  0        0
  1  2  1  0        0
  1 29  1  0        0
  2  3  2  0        0
  2 30  1  0        0
  3 28  1  0        0
  3  4  1  0        0
  4  5  2  0        0
  4 12  1  0        0
  5  6  1  0        0
  5 31  1  0        0
  6  7  1  0        0
  7 11  1  0        0
  7  8  2  0        0
  8  9  1  0        0
  8 32  1  0        0
  9 10  2  0        0
 10 11  1  0        0
 10 33  1  0        0
 12 13  2  0        0
 12 26  1  0        0
 13 14  1  0        0
 13 34  1  0        0
 14 15  1  0        0
 14 35  1  0        0
 15 20  2  0        0
 15 16  1  0        0
 16 17  2  0        0
 16 36  1  0        0
 17 18  1  0        0
 17 37  1  0        0
 18 25  1  0        0
 18 19  2  0        0
 19 20  1  0        0
 19 21  1  0        0
 20 38  1  0        0
 21 22  1  0        0
 21 39  1  0        0
 21 40  1  0        0
 22 23  2  0        0
 22 24  2  0        0
 22 25  1  0        0
 25 41  1  0        0
 25 42  1  0        0
 26 27  2  0        0
 26 28  1  0        0
 28 43  1  0        0
M  END
>  <MolfileName> (70)
ZINC04617746

$$$$
ZINC04617747
csCF1202/ 12301312233D

 41 43  0  0  0  0  0  0  0  0999 V2000
   -3.4568   -5.8441    0.3547 C   0  0  0  0  0  0  0  0  0  0  0  0
   -4.8016   -5.9924    0.0581 C   0  0  0  0  0  0  0  0  0  0  0  0
   -5.5633   -4.9039   -0.3140 C   0  0  0  0  0  0  0  0  0  0  0  0
   -4.9842   -3.6418   -0.3948 C   0  0  0  0  0  0  0  0  0  0  0  0
   -3.6241   -3.4962   -0.0936 C   0  0  0  0  0  0  0  0  0  0  0  0
   -2.8650   -4.5993    0.2804 C   0  0  0  0  0  0  0  0  0  0  0  0
   -3.3102   -2.0587   -0.2676 C   0  0  0  0  0  0  0  0  0  0  0  0
   -2.1054   -1.4437   -0.0844 C   0  0  0  0  0  0  0  0  0  0  0  0
   -1.9875   -0.1027   -0.2889 N   0  0  0  0  0  0  0  0  0  0  0  0
   -0.7541    0.5269   -0.1013 C   0  0  0  0  0  0  0  0  0  0  0  0
   -0.6321    1.8950   -0.3094 C   0  0  0  0  0  0  0  0  0  0  0  0
    0.5882    2.5141   -0.1227 C   0  0  0  0  0  0  0  0  0  0  0  0
    1.6879    1.7737    0.2711 C   0  0  0  0  0  0  0  0  0  0  0  0
    1.5699    0.4117    0.4791 C   0  0  0  0  0  0  0  0  0  0  0  0
    0.3526   -0.2137    0.2942 C   0  0  0  0  0  0  0  0  0  0  0  0
    3.2430    2.5677    0.5082 S   0  0  0  0  0  0  0  0  0  0  0  0
    2.9640    3.9347    0.7781 O   0  0  0  0  0  0  0  0  0  0  0  0
    3.9841    1.7502    1.4035 O   0  0  0  0  0  0  0  0  0  0  0  0
    4.0407    2.5250   -0.9424 N   0  0  0  0  0  0  0  0  0  0  0  0
    3.5401    3.2123   -2.0228 C   0  0  0  0  0  0  0  0  0  0  0  0
    4.2025    3.1768   -3.2270 N   0  0  0  0  0  0  0  0  0  0  0  0
   -4.5765   -1.4383   -0.6734 C   0  0  0  0  0  0  0  0  0  0  0  0
   -4.7498   -0.2566   -0.9143 O   0  0  0  0  0  0  0  0  0  0  0  0
   -5.5107   -2.4022   -0.7363 N   0  0  0  0  0  0  0  0  0  0  0  0
   -2.8706   -6.7034    0.6448 H   0  0  0  0  0  0  0  0  0  0  0  0
   -5.2580   -6.9693    0.1183 H   0  0  0  0  0  0  0  0  0  0  0  0
   -6.6110   -5.0320   -0.5429 H   0  0  0  0  0  0  0  0  0  0  0  0
   -1.8167   -4.4826    0.5122 H   0  0  0  0  0  0  0  0  0  0  0  0
   -1.2457   -2.0208    0.2227 H   0  0  0  0  0  0  0  0  0  0  0  0
   -2.7596    0.4156   -0.5648 H   0  0  0  0  0  0  0  0  0  0  0  0
   -1.4894    2.4731   -0.6213 H   0  0  0  0  0  0  0  0  0  0  0  0
    0.6839    3.5776   -0.2844 H   0  0  0  0  0  0  0  0  0  0  0  0
    2.4307   -0.1635    0.7869 H   0  0  0  0  0  0  0  0  0  0  0  0
    0.2611   -1.2775    0.4573 H   0  0  0  0  0  0  0  0  0  0  0  0
    4.8612    2.0150   -1.0299 H   0  0  0  0  0  0  0  0  0  0  0  0
    2.0051    4.4154   -2.6097 H   0  0  0  0  0  0  0  0  0  0  0  0
    5.0229    2.6669   -3.3144 H   0  0  0  0  0  0  0  0  0  0  0  0
    3.8493    3.6618   -3.9893 H   0  0  0  0  0  0  0  0  0  0  0  0
   -6.4362   -2.2510   -0.9842 H   0  0  0  0  0  0  0  0  0  0  0  0
    2.4161    3.8895   -1.8383 N   0  3  0  0  0  0  0  0  0  0  0  0
    1.9589    3.8848   -0.9190 H   0  0  0  0  0  0  0  0  0  0  0  0
  1  6  2  0        0
  1  2  1  0        0
  1 25  1  0        0
  2  3  2  0        0
  2 26  1  0        0
  3  4  1  0        0
  3 27  1  0        0
  4 24  1  0        0
  4  5  2  0        0
  5  6  1  0        0
  5  7  1  0        0
  6 28  1  0        0
  7  8  2  0        0
  7 22  1  0        0
  8  9  1  0        0
  8 29  1  0        0
  9 10  1  0        0
  9 30  1  0        0
 10 15  2  0        0
 10 11  1  0        0
 11 12  2  0        0
 11 31  1  0        0
 12 13  1  0        0
 12 32  1  0        0
 13 14  2  0        0
 13 16  1  0        0
 14 15  1  0        0
 14 33  1  0        0
 15 34  1  0        0
 16 17  2  0        0
 16 18  2  0        0
 16 19  1  0        0
 19 20  1  0        0
 19 35  1  0        0
 20 21  1  0        0
 20 40  2  0        0
 21 37  1  0        0
 21 38  1  0        0
 22 23  2  0        0
 22 24  1  0        0
 24 39  1  0        0
 36 40  1  0        0
 40 41  1  0        0
M  CHG  1  40   1
M  END
>  <MolfileName> (71)
ZINC04617747

$$$$
ZINC04617748
csCF1202/ 12301312233D

 51 54  0  0  0  0  0  0  0  0999 V2000
   -3.2480   -0.8161    0.6275 C   0  0  0  0  0  0  0  0  0  0  0  0
   -2.7421    0.4217    0.0616 O   0  0  0  0  0  0  0  0  0  0  0  0
   -1.6227    0.3405   -0.6864 C   0  0  0  0  0  0  0  0  0  0  0  0
   -0.9526   -0.8134   -1.0646 C   0  0  0  0  0  0  0  0  0  0  0  0
    0.1440   -0.4522   -1.8178 C   0  0  0  0  0  0  0  0  0  0  0  0
    0.2077    0.8967   -1.9484 N   0  0  0  0  0  0  0  0  0  0  0  0
    0.8910    1.3842   -2.4345 H   0  0  0  0  0  0  0  0  0  0  0  0
   -0.8601    1.4645   -1.2751 C   0  0  0  0  0  0  0  0  0  0  0  0
   -1.1517    2.8082   -1.1689 C   0  0  0  0  0  0  0  0  0  0  0  0
   -0.1040    3.7581   -1.1240 C   0  0  0  0  0  0  0  0  0  0  0  0
   -0.2324    5.1483   -1.1489 C   0  0  0  0  0  0  0  0  0  0  0  0
    1.1233    5.7021   -1.0874 C   0  0  0  0  0  0  0  0  0  0  0  0
    1.2801    7.0690   -1.1025 C   0  0  0  0  0  0  0  0  0  0  0  0
    0.1758    7.9162   -1.1761 C   0  0  0  0  0  0  0  0  0  0  0  0
   -1.1142    7.4421   -1.2350 C   0  0  0  0  0  0  0  0  0  0  0  0
   -1.3702    6.0717   -1.2246 C   0  0  0  0  0  0  0  0  0  0  0  0
   -2.6561    5.5975   -1.2842 N   0  0  0  0  0  0  0  0  0  0  0  0
   -3.0063    4.8704   -0.0574 C   0  0  0  0  0  0  0  0  0  0  0  0
   -4.4864    4.4834   -0.0972 C   0  0  0  0  0  0  0  0  0  0  0  0
   -4.7467    3.6060   -1.3247 C   0  0  0  0  0  0  0  0  0  0  0  0
   -4.3285    4.3682   -2.5851 C   0  0  1  0  0  0  0  0  0  0  0  0
   -4.9363    5.2675   -2.6850 H   0  0  0  0  0  0  0  0  0  0  0  0
   -2.8530    4.7586   -2.4733 C   0  0  0  0  0  0  0  0  0  0  0  0
   -4.5272    3.4899   -3.7935 C   0  0  0  0  0  0  0  0  0  0  0  0
   -3.6586    2.7119   -4.1271 O   0  0  0  0  0  0  0  0  0  0  0  0
   -5.6701    3.5688   -4.5034 N   0  0  0  0  0  0  0  0  0  0  0  0
   -2.2424    8.3970   -1.3108 N   0  3  0  0  0  0  0  0  0  0  0  0
   -2.0069    9.6839   -1.4624 O   0  0  0  0  0  0  0  0  0  0  0  0
   -3.4819    7.9599   -1.2267 O   0  5  0  0  0  0  0  0  0  0  0  0
    2.0208    4.6452   -1.0224 N   0  0  0  0  0  0  0  0  0  0  0  0
    1.3583    3.4742   -1.0370 C   0  0  0  0  0  0  0  0  0  0  0  0
    1.8651    2.3725   -0.9923 O   0  0  0  0  0  0  0  0  0  0  0  0
   -3.4502   -1.5263   -0.1744 H   0  0  0  0  0  0  0  0  0  0  0  0
   -2.5052   -1.2358    1.3058 H   0  0  0  0  0  0  0  0  0  0  0  0
   -4.1685   -0.6155    1.1757 H   0  0  0  0  0  0  0  0  0  0  0  0
   -1.2387   -1.8229   -0.8089 H   0  0  0  0  0  0  0  0  0  0  0  0
    0.8533   -1.1460   -2.2444 H   0  0  0  0  0  0  0  0  0  0  0  0
   -2.1798    3.1354   -1.1200 H   0  0  0  0  0  0  0  0  0  0  0  0
    2.2730    7.4915   -1.0574 H   0  0  0  0  0  0  0  0  0  0  0  0
    0.3387    8.9838   -1.1864 H   0  0  0  0  0  0  0  0  0  0  0  0
   -2.3972    3.9696    0.0172 H   0  0  0  0  0  0  0  0  0  0  0  0
   -2.8206    5.5071    0.8076 H   0  0  0  0  0  0  0  0  0  0  0  0
   -4.7422    3.9301    0.8065 H   0  0  0  0  0  0  0  0  0  0  0  0
   -5.0967    5.3845   -0.1572 H   0  0  0  0  0  0  0  0  0  0  0  0
   -4.1660    2.6869   -1.2453 H   0  0  0  0  0  0  0  0  0  0  0  0
   -5.8080    3.3637   -1.3808 H   0  0  0  0  0  0  0  0  0  0  0  0
   -2.5558    5.3139   -3.3629 H   0  0  0  0  0  0  0  0  0  0  0  0
   -2.2446    3.8582   -2.3873 H   0  0  0  0  0  0  0  0  0  0  0  0
   -6.3958    4.1328   -4.1931 H   0  0  0  0  0  0  0  0  0  0  0  0
   -5.7670    3.0617   -5.3245 H   0  0  0  0  0  0  0  0  0  0  0  0
    2.9852    4.7374   -0.9730 H   0  0  0  0  0  0  0  0  0  0  0  0
  1  2  1  0        0
  1 33  1  0        0
  1 34  1  0        0
  1 35  1  0        0
  2  3  1  0        0
  3  8  2  0        0
  3  4  1  0        0
  4  5  2  0        0
  4 36  1  0        0
  5  6  1  0        0
  5 37  1  0        0
  6  7  1  0        0
  6  8  1  0        0
  8  9  1  0        0
  9 10  2  0        0
  9 38  1  0        0
 10 31  1  0        0
 10 11  1  0        0
 11 16  2  0        0
 11 12  1  0        0
 12 13  2  0        0
 12 30  1  0        0
 13 14  1  0        0
 13 39  1  0        0
 14 15  2  0        0
 14 40  1  0        0
 15 16  1  0        0
 15 27  1  0        0
 16 17  1  0        0
 17 23  1  0        0
 17 18  1  0        0
 18 19  1  0        0
 18 41  1  0        0
 18 42  1  0        0
 19 20  1  0        0
 19 43  1  0        0
 19 44  1  0        0
 20 21  1  0        0
 20 45  1  0        0
 20 46  1  0        0
 21 22  1  0        0
 21 23  1  0        0
 21 24  1  0        0
 23 47  1  0        0
 23 48  1  0        0
 24 25  2  0        0
 24 26  1  0        0
 26 49  1  0        0
 26 50  1  0        0
 27 28  2  0        0
 27 29  1  0        0
 30 31  1  0        0
 30 51  1  0        0
 31 32  2  0        0
M  CHG  2  27   1  29  -1
M  END
>  <MolfileName> (72)
ZINC04617748

$$$$

csCF1202/ 12301312232D

 16 18  0  0  0  0  0  0  0  0999 V2000
    3.0259   -1.1803    0.0000 N   0  0  0  0  0  0  0  0  0  0  0  0
    3.0259   -2.7033    0.0000 C   0  0  0  0  0  0  0  0  0  0  0  0
    4.4744   -3.1740    0.0000 C   0  0  0  0  0  0  0  0  0  0  0  0
    5.3696   -1.9418    0.0000 C   0  0  0  0  0  0  0  0  0  0  0  0
    4.4744   -0.7097    0.0000 C   0  0  0  0  0  0  0  0  0  0  0  0
    1.8941   -3.7224    0.0000 N   0  0  0  0  0  0  0  0  0  0  0  0
    2.2107   -5.2121    0.0000 C   0  0  0  0  0  0  0  0  0  0  0  0
    3.6592   -5.6828    0.0000 C   0  0  0  0  0  0  0  0  0  0  0  0
    4.7910   -4.6637    0.0000 C   0  0  0  0  0  0  0  0  0  0  0  0
    6.2395   -5.1343    0.0000 N   0  0  0  0  0  0  0  0  0  0  0  0
    6.8926   -1.9418    0.0000 C   0  0  0  0  0  0  0  0  0  0  0  0
    6.5561   -6.6240    0.0000 C   0  0  0  0  0  0  0  0  0  0  0  0
    8.0046   -7.0947    0.0000 C   0  0  0  0  0  0  0  0  0  0  0  0
    9.1364   -6.0756    0.0000 C   0  0  0  0  0  0  0  0  0  0  0  0
    8.8197   -4.5858    0.0000 C   0  0  0  0  0  0  0  0  0  0  0  0
    7.3713   -4.1152    0.0000 C   0  0  0  0  0  0  0  0  0  0  0  0
  1  2  1  0        0
  2  3  2  0        0
  3  4  1  0        0
  4  5  2  0        0
  5  1  1  0        0
  2  6  1  0        0
  6  7  2  0        0
  7  8  1  0        0
  8  9  2  0        0
  9  3  1  0        0
  9 10  1  0        0
  4 11  1  0        0
 10 12  1  0        0
 12 13  1  0        0
 13 14  1  0        0
 14 15  1  0        0
 15 16  1  0        0
 16 10  1  0        0
M  END
$$$$
